/*---------------------------------------------------------------------------*\
| =========                 |                                                 |
| \\      /  F ield         | foam-extend: Open Source CFD                    |
|  \\    /   O peration     | Version:     3.2                                |
|   \\  /    A nd           | Web:         http://www.foam-extend.org         |
|    \\/     M anipulation  | For copyright notice see file Copyright         |
\*---------------------------------------------------------------------------*/
Build    : 3.2-0b2838935026
Exec     : simpleFoam -parallel
Date     : Jul 20 2022
Time     : 12:56:18
Host     : mihaelcindori-Legion-Y540-15IRH-PG0
PID      : 25055
CtrlDict : "/home/mihaelcindori/Documents/OpenFoam/pedestrianWindComfort_URANS/pedestrianWindComfortSimulations/realizableKE/w_6m/finalDomain_finerNearWallMesh/pedestrianWindComfort_realizableKE_cfMesh_symmetryBC_fe32/system/controlDict"
Case     : /home/mihaelcindori/Documents/OpenFoam/pedestrianWindComfort_URANS/pedestrianWindComfortSimulations/realizableKE/w_6m/finalDomain_finerNearWallMesh/pedestrianWindComfort_realizableKE_cfMesh_symmetryBC_fe32
nProcs   : 4
Slaves : 
3
(
mihaelcindori-Legion-Y540-15IRH-PG0.25056
mihaelcindori-Legion-Y540-15IRH-PG0.25057
mihaelcindori-Legion-Y540-15IRH-PG0.25058
)

Pstream initialized with:
    nProcsSimpleSum   : 16
    commsType         : blocking
SigFpe   : Enabling floating point exception trapping (FOAM_SIGFPE).

// * * * * * * * * * * * * * * * * * * * * * * * * * * * * * * * * * * * * * //
Create time

--> FOAM Warning : 
    From function IOstream::formatEnum(const word&)
    in file db/IOstreams/IOstreams/IOstream.C at line 52
    bad format specifier 'ASCII', using 'ascii'
Create mesh for time = 0

Reading field p

Reading field U

Reading/calculating face flux field phi

Selecting incompressible transport model Newtonian
Selecting RAS turbulence model realizableKE
--> FOAM Warning : 
    From function Field<Type>::Field(const word& keyword, const dictionary&, const label)
    in file /home/mihaelcindori/foam/foam-extend-3.2/src/foam/lnInclude/Field.C at line 265
    Reading "/home/mihaelcindori/Documents/OpenFoam/pedestrianWindComfort_URANS/pedestrianWindComfortSimulations/realizableKE/w_6m/finalDomain_finerNearWallMesh/pedestrianWindComfort_realizableKE_cfMesh_symmetryBC_fe32/processor0/0/epsilon::boundaryField::walls" from line 249599 to line 252842
    expected keyword 'uniform' or 'nonuniform', assuming deprecated Field format from Foam version 2.0.
realizableKECoeffs
{
    Cmu             0.09;
    A0              4;
    C2              1.9;
    sigmak          1;
    sigmaEps        1.2;
}


Starting time loop

Searching for probe point locations
Time = 1

smoothSolver:  Solving for Ux, Initial residual = 0.000125649, Final residual = 6.04936e-09, No Iterations 15
smoothSolver:  Solving for Uy, Initial residual = 0.000228498, Final residual = 7.84529e-09, No Iterations 17
smoothSolver:  Solving for Uz, Initial residual = 0.000105063, Final residual = 5.80631e-09, No Iterations 16
GAMG:  Solving for p, Initial residual = 0.602425, Final residual = 9.508e-08, No Iterations 129
time step continuity errors : sum local = 2.63127e-11, global = -8.48137e-13, cumulative = -8.48137e-13
smoothSolver:  Solving for epsilon, Initial residual = 7.75588e-05, Final residual = 6.23157e-09, No Iterations 14
smoothSolver:  Solving for k, Initial residual = 0.000322059, Final residual = 9.98095e-09, No Iterations 16
ExecutionTime = 15.4 s  ClockTime = 16 s

Time = 2

smoothSolver:  Solving for Ux, Initial residual = 0.00345154, Final residual = 5.91102e-09, No Iterations 23
smoothSolver:  Solving for Uy, Initial residual = 0.0106897, Final residual = 7.58738e-09, No Iterations 24
smoothSolver:  Solving for Uz, Initial residual = 0.00138794, Final residual = 9.80669e-09, No Iterations 21
GAMG:  Solving for p, Initial residual = 0.322402, Final residual = 9.70491e-08, No Iterations 61
time step continuity errors : sum local = 3.21796e-11, global = -1.23483e-11, cumulative = -1.31965e-11
smoothSolver:  Solving for epsilon, Initial residual = 0.000169959, Final residual = 9.64862e-09, No Iterations 14
smoothSolver:  Solving for k, Initial residual = 0.00024891, Final residual = 6.72998e-09, No Iterations 17
ExecutionTime = 24.06 s  ClockTime = 25 s

Time = 3

smoothSolver:  Solving for Ux, Initial residual = 0.00222224, Final residual = 6.71265e-09, No Iterations 22
smoothSolver:  Solving for Uy, Initial residual = 0.00638238, Final residual = 8.18878e-09, No Iterations 23
smoothSolver:  Solving for Uz, Initial residual = 0.000934696, Final residual = 6.71265e-09, No Iterations 21
GAMG:  Solving for p, Initial residual = 0.49701, Final residual = 9.68437e-08, No Iterations 66
time step continuity errors : sum local = 3.07221e-11, global = 7.37162e-12, cumulative = -5.82486e-12
smoothSolver:  Solving for epsilon, Initial residual = 0.000136526, Final residual = 7.72103e-09, No Iterations 14
smoothSolver:  Solving for k, Initial residual = 0.00018473, Final residual = 6.54126e-09, No Iterations 17
ExecutionTime = 33.31 s  ClockTime = 34 s

Time = 4

smoothSolver:  Solving for Ux, Initial residual = 0.000620262, Final residual = 9.57506e-09, No Iterations 19
smoothSolver:  Solving for Uy, Initial residual = 0.00327619, Final residual = 6.94776e-09, No Iterations 22
smoothSolver:  Solving for Uz, Initial residual = 0.000424317, Final residual = 6.14265e-09, No Iterations 19
GAMG:  Solving for p, Initial residual = 0.386958, Final residual = 8.92494e-08, No Iterations 68
time step continuity errors : sum local = 2.96247e-11, global = 8.66269e-12, cumulative = 2.83783e-12
smoothSolver:  Solving for epsilon, Initial residual = 8.19098e-05, Final residual = 9.55522e-09, No Iterations 13
smoothSolver:  Solving for k, Initial residual = 0.000149906, Final residual = 5.98173e-09, No Iterations 17
ExecutionTime = 42.42 s  ClockTime = 43 s

Time = 5

smoothSolver:  Solving for Ux, Initial residual = 0.00206042, Final residual = 6.08313e-09, No Iterations 22
smoothSolver:  Solving for Uy, Initial residual = 0.00723039, Final residual = 8.94372e-09, No Iterations 23
smoothSolver:  Solving for Uz, Initial residual = 0.000834755, Final residual = 9.66906e-09, No Iterations 20
GAMG:  Solving for p, Initial residual = 0.361654, Final residual = 9.57676e-08, No Iterations 64
time step continuity errors : sum local = 2.38382e-11, global = 4.99144e-12, cumulative = 7.82927e-12
smoothSolver:  Solving for epsilon, Initial residual = 6.41132e-05, Final residual = 6.37268e-09, No Iterations 13
smoothSolver:  Solving for k, Initial residual = 0.000154139, Final residual = 5.9484e-09, No Iterations 17
ExecutionTime = 51.34 s  ClockTime = 52 s

Time = 6

smoothSolver:  Solving for Ux, Initial residual = 0.00105956, Final residual = 9.91916e-09, No Iterations 20
smoothSolver:  Solving for Uy, Initial residual = 0.00298606, Final residual = 6.90695e-09, No Iterations 22
smoothSolver:  Solving for Uz, Initial residual = 0.000434994, Final residual = 9.26744e-09, No Iterations 19
GAMG:  Solving for p, Initial residual = 0.397931, Final residual = 9.53052e-08, No Iterations 71
time step continuity errors : sum local = 2.05908e-11, global = -6.56839e-13, cumulative = 7.17243e-12
smoothSolver:  Solving for epsilon, Initial residual = 5.47311e-05, Final residual = 9.82832e-09, No Iterations 12
smoothSolver:  Solving for k, Initial residual = 0.000143093, Final residual = 6.28424e-09, No Iterations 17
ExecutionTime = 60.4 s  ClockTime = 61 s

Time = 7

smoothSolver:  Solving for Ux, Initial residual = 0.000767445, Final residual = 7.11933e-09, No Iterations 20
smoothSolver:  Solving for Uy, Initial residual = 0.0031365, Final residual = 7.02976e-09, No Iterations 22
smoothSolver:  Solving for Uz, Initial residual = 0.000393365, Final residual = 6.61009e-09, No Iterations 19
GAMG:  Solving for p, Initial residual = 0.296111, Final residual = 9.7473e-08, No Iterations 70
time step continuity errors : sum local = 2.32594e-11, global = -5.07525e-12, cumulative = 2.09719e-12
smoothSolver:  Solving for epsilon, Initial residual = 4.49838e-05, Final residual = 8.78657e-09, No Iterations 12
smoothSolver:  Solving for k, Initial residual = 0.000129966, Final residual = 6.70195e-09, No Iterations 17
ExecutionTime = 69.46 s  ClockTime = 70 s

Time = 8

smoothSolver:  Solving for Ux, Initial residual = 0.00123855, Final residual = 6.57785e-09, No Iterations 21
smoothSolver:  Solving for Uy, Initial residual = 0.0038242, Final residual = 8.847e-09, No Iterations 22
smoothSolver:  Solving for Uz, Initial residual = 0.000515971, Final residual = 6.1926e-09, No Iterations 20
GAMG:  Solving for p, Initial residual = 0.295575, Final residual = 9.76535e-08, No Iterations 70
time step continuity errors : sum local = 2.62069e-11, global = 8.41463e-12, cumulative = 1.05118e-11
smoothSolver:  Solving for epsilon, Initial residual = 3.39983e-05, Final residual = 8.01697e-09, No Iterations 12
smoothSolver:  Solving for k, Initial residual = 0.00013206, Final residual = 6.79935e-09, No Iterations 17
ExecutionTime = 78.65 s  ClockTime = 79 s

Time = 9

smoothSolver:  Solving for Ux, Initial residual = 0.000357599, Final residual = 6.15065e-09, No Iterations 19
smoothSolver:  Solving for Uy, Initial residual = 0.00061807, Final residual = 8.0509e-09, No Iterations 19
smoothSolver:  Solving for Uz, Initial residual = 0.000262206, Final residual = 8.25388e-09, No Iterations 18
GAMG:  Solving for p, Initial residual = 0.270331, Final residual = 9.85102e-08, No Iterations 69
time step continuity errors : sum local = 2.42124e-11, global = 6.35658e-12, cumulative = 1.68684e-11
smoothSolver:  Solving for epsilon, Initial residual = 2.70724e-05, Final residual = 7.54246e-09, No Iterations 12
smoothSolver:  Solving for k, Initial residual = 0.000126291, Final residual = 6.55752e-09, No Iterations 17
ExecutionTime = 87.65 s  ClockTime = 88 s

Time = 10

smoothSolver:  Solving for Ux, Initial residual = 0.000599971, Final residual = 9.53731e-09, No Iterations 19
smoothSolver:  Solving for Uy, Initial residual = 0.0029508, Final residual = 6.41586e-09, No Iterations 22
smoothSolver:  Solving for Uz, Initial residual = 0.000336085, Final residual = 5.86728e-09, No Iterations 19
GAMG:  Solving for p, Initial residual = 0.212037, Final residual = 9.75498e-08, No Iterations 62
time step continuity errors : sum local = 2.70846e-11, global = 1.00312e-11, cumulative = 2.68996e-11
smoothSolver:  Solving for epsilon, Initial residual = 2.38464e-05, Final residual = 7.36669e-09, No Iterations 12
smoothSolver:  Solving for k, Initial residual = 0.000129364, Final residual = 6.39975e-09, No Iterations 17
ExecutionTime = 96.01 s  ClockTime = 97 s

Time = 11

smoothSolver:  Solving for Ux, Initial residual = 0.000687534, Final residual = 6.34688e-09, No Iterations 20
smoothSolver:  Solving for Uy, Initial residual = 0.00248032, Final residual = 5.671e-09, No Iterations 22
smoothSolver:  Solving for Uz, Initial residual = 0.000321811, Final residual = 6.47711e-09, No Iterations 19
GAMG:  Solving for p, Initial residual = 0.227952, Final residual = 9.17386e-08, No Iterations 61
time step continuity errors : sum local = 1.57753e-11, global = 3.70839e-14, cumulative = 2.69367e-11
smoothSolver:  Solving for epsilon, Initial residual = 2.13367e-05, Final residual = 7.30135e-09, No Iterations 12
smoothSolver:  Solving for k, Initial residual = 0.000130811, Final residual = 6.47415e-09, No Iterations 17
ExecutionTime = 104.3 s  ClockTime = 105 s

Time = 12

smoothSolver:  Solving for Ux, Initial residual = 6.60967e-05, Final residual = 5.9853e-09, No Iterations 16
smoothSolver:  Solving for Uy, Initial residual = 0.000566042, Final residual = 7.50572e-09, No Iterations 19
smoothSolver:  Solving for Uz, Initial residual = 0.00017146, Final residual = 9.20651e-09, No Iterations 17
GAMG:  Solving for p, Initial residual = 0.195493, Final residual = 9.57924e-08, No Iterations 61
time step continuity errors : sum local = 2.55168e-11, global = -9.82133e-12, cumulative = 1.71153e-11
smoothSolver:  Solving for epsilon, Initial residual = 2.01487e-05, Final residual = 7.21396e-09, No Iterations 12
smoothSolver:  Solving for k, Initial residual = 0.000126966, Final residual = 6.68123e-09, No Iterations 17
ExecutionTime = 112.41 s  ClockTime = 113 s

Time = 13

smoothSolver:  Solving for Ux, Initial residual = 0.000441741, Final residual = 7.22832e-09, No Iterations 19
smoothSolver:  Solving for Uy, Initial residual = 0.00173101, Final residual = 7.0638e-09, No Iterations 21
smoothSolver:  Solving for Uz, Initial residual = 0.000214846, Final residual = 6.61894e-09, No Iterations 18
GAMG:  Solving for p, Initial residual = 0.151724, Final residual = 9.11386e-08, No Iterations 56
time step continuity errors : sum local = 1.78574e-11, global = 3.27304e-12, cumulative = 2.03884e-11
smoothSolver:  Solving for epsilon, Initial residual = 1.94728e-05, Final residual = 7.07695e-09, No Iterations 12
smoothSolver:  Solving for k, Initial residual = 0.000128309, Final residual = 6.83525e-09, No Iterations 17
ExecutionTime = 120.28 s  ClockTime = 121 s

Time = 14

smoothSolver:  Solving for Ux, Initial residual = 0.000350413, Final residual = 5.8643e-09, No Iterations 19
smoothSolver:  Solving for Uy, Initial residual = 0.000942844, Final residual = 7.0672e-09, No Iterations 20
smoothSolver:  Solving for Uz, Initial residual = 0.000172981, Final residual = 5.88879e-09, No Iterations 18
GAMG:  Solving for p, Initial residual = 0.165276, Final residual = 9.4922e-08, No Iterations 54
time step continuity errors : sum local = 1.78823e-11, global = -2.61911e-12, cumulative = 1.77693e-11
smoothSolver:  Solving for epsilon, Initial residual = 1.85032e-05, Final residual = 6.89469e-09, No Iterations 12
smoothSolver:  Solving for k, Initial residual = 0.000127112, Final residual = 6.82172e-09, No Iterations 17
ExecutionTime = 127.99 s  ClockTime = 129 s

Time = 15

smoothSolver:  Solving for Ux, Initial residual = 7.10894e-05, Final residual = 9.67152e-09, No Iterations 15
smoothSolver:  Solving for Uy, Initial residual = 0.000919639, Final residual = 6.96245e-09, No Iterations 20
smoothSolver:  Solving for Uz, Initial residual = 0.000162784, Final residual = 8.32938e-09, No Iterations 17
GAMG:  Solving for p, Initial residual = 0.136051, Final residual = 8.82369e-08, No Iterations 52
time step continuity errors : sum local = 1.93477e-11, global = 5.57514e-12, cumulative = 2.33444e-11
smoothSolver:  Solving for epsilon, Initial residual = 1.78519e-05, Final residual = 6.73714e-09, No Iterations 12
smoothSolver:  Solving for k, Initial residual = 0.000125049, Final residual = 6.74243e-09, No Iterations 17
ExecutionTime = 135.48 s  ClockTime = 136 s

Time = 16

smoothSolver:  Solving for Ux, Initial residual = 0.0002825, Final residual = 7.98376e-09, No Iterations 18
smoothSolver:  Solving for Uy, Initial residual = 0.00139213, Final residual = 5.87725e-09, No Iterations 21
smoothSolver:  Solving for Uz, Initial residual = 0.000194873, Final residual = 6.49849e-09, No Iterations 18
GAMG:  Solving for p, Initial residual = 0.116877, Final residual = 9.08874e-08, No Iterations 49
time step continuity errors : sum local = 2.00369e-11, global = -6.06971e-12, cumulative = 1.72747e-11
smoothSolver:  Solving for epsilon, Initial residual = 1.71222e-05, Final residual = 6.66004e-09, No Iterations 12
smoothSolver:  Solving for k, Initial residual = 0.000126358, Final residual = 6.72287e-09, No Iterations 17
ExecutionTime = 142.82 s  ClockTime = 143 s

Time = 17

smoothSolver:  Solving for Ux, Initial residual = 0.000162284, Final residual = 8.28406e-09, No Iterations 17
smoothSolver:  Solving for Uy, Initial residual = 0.000679051, Final residual = 5.69809e-09, No Iterations 20
smoothSolver:  Solving for Uz, Initial residual = 0.00014882, Final residual = 9.11903e-09, No Iterations 17
GAMG:  Solving for p, Initial residual = 0.119533, Final residual = 8.91654e-08, No Iterations 51
time step continuity errors : sum local = 1.53014e-11, global = -1.68494e-12, cumulative = 1.55898e-11
smoothSolver:  Solving for epsilon, Initial residual = 1.65965e-05, Final residual = 6.62715e-09, No Iterations 12
smoothSolver:  Solving for k, Initial residual = 0.000126233, Final residual = 6.79015e-09, No Iterations 17
ExecutionTime = 150.24 s  ClockTime = 151 s

Time = 18

smoothSolver:  Solving for Ux, Initial residual = 9.36522e-05, Final residual = 8.40601e-09, No Iterations 16
smoothSolver:  Solving for Uy, Initial residual = 0.000586997, Final residual = 7.65257e-09, No Iterations 19
smoothSolver:  Solving for Uz, Initial residual = 0.00012474, Final residual = 6.59882e-09, No Iterations 17
GAMG:  Solving for p, Initial residual = 0.0980802, Final residual = 9.14859e-08, No Iterations 50
time step continuity errors : sum local = 1.75536e-11, global = 3.79052e-12, cumulative = 1.93803e-11
smoothSolver:  Solving for epsilon, Initial residual = 1.64176e-05, Final residual = 6.59214e-09, No Iterations 12
smoothSolver:  Solving for k, Initial residual = 0.000126295, Final residual = 6.88337e-09, No Iterations 17
ExecutionTime = 157.59 s  ClockTime = 158 s

Time = 19

smoothSolver:  Solving for Ux, Initial residual = 0.00017375, Final residual = 9.00194e-09, No Iterations 17
smoothSolver:  Solving for Uy, Initial residual = 0.000659386, Final residual = 8.90082e-09, No Iterations 19
smoothSolver:  Solving for Uz, Initial residual = 0.000116924, Final residual = 6.18541e-09, No Iterations 17
GAMG:  Solving for p, Initial residual = 0.0890572, Final residual = 9.02228e-08, No Iterations 49
time step continuity errors : sum local = 1.53968e-11, global = -1.96422e-12, cumulative = 1.74161e-11
smoothSolver:  Solving for epsilon, Initial residual = 1.60285e-05, Final residual = 6.55258e-09, No Iterations 12
smoothSolver:  Solving for k, Initial residual = 0.000126317, Final residual = 6.92689e-09, No Iterations 17
ExecutionTime = 164.87 s  ClockTime = 165 s

Time = 20

smoothSolver:  Solving for Ux, Initial residual = 6.73247e-05, Final residual = 6.48102e-09, No Iterations 16
smoothSolver:  Solving for Uy, Initial residual = 0.000299698, Final residual = 8.9348e-09, No Iterations 18
smoothSolver:  Solving for Uz, Initial residual = 0.00010747, Final residual = 5.77164e-09, No Iterations 17
GAMG:  Solving for p, Initial residual = 0.0833488, Final residual = 9.85967e-08, No Iterations 49
time step continuity errors : sum local = 1.57999e-11, global = -1.20772e-12, cumulative = 1.62083e-11
smoothSolver:  Solving for epsilon, Initial residual = 1.55678e-05, Final residual = 6.50453e-09, No Iterations 12
smoothSolver:  Solving for k, Initial residual = 0.000125168, Final residual = 6.91213e-09, No Iterations 17
ExecutionTime = 172.1 s  ClockTime = 173 s

Time = 21

smoothSolver:  Solving for Ux, Initial residual = 7.85457e-05, Final residual = 6.56489e-09, No Iterations 16
smoothSolver:  Solving for Uy, Initial residual = 0.000695358, Final residual = 9.88388e-09, No Iterations 19
smoothSolver:  Solving for Uz, Initial residual = 0.000126553, Final residual = 7.20295e-09, No Iterations 17
GAMG:  Solving for p, Initial residual = 0.0686639, Final residual = 9.04779e-08, No Iterations 49
time step continuity errors : sum local = 1.78419e-11, global = 4.59598e-12, cumulative = 2.08043e-11
smoothSolver:  Solving for epsilon, Initial residual = 1.52997e-05, Final residual = 6.45596e-09, No Iterations 12
smoothSolver:  Solving for k, Initial residual = 0.0001249, Final residual = 6.88904e-09, No Iterations 17
ExecutionTime = 179.37 s  ClockTime = 180 s

Time = 22

smoothSolver:  Solving for Ux, Initial residual = 9.80294e-05, Final residual = 8.58789e-09, No Iterations 16
smoothSolver:  Solving for Uy, Initial residual = 0.000617889, Final residual = 9.02193e-09, No Iterations 19
smoothSolver:  Solving for Uz, Initial residual = 0.000124287, Final residual = 7.50499e-09, No Iterations 17
GAMG:  Solving for p, Initial residual = 0.0663712, Final residual = 9.96123e-08, No Iterations 46
time step continuity errors : sum local = 1.92843e-11, global = -4.72216e-12, cumulative = 1.60822e-11
smoothSolver:  Solving for epsilon, Initial residual = 1.52213e-05, Final residual = 6.40123e-09, No Iterations 12
smoothSolver:  Solving for k, Initial residual = 0.000124857, Final residual = 6.90096e-09, No Iterations 17
ExecutionTime = 186.42 s  ClockTime = 187 s

Time = 23

smoothSolver:  Solving for Ux, Initial residual = 2.46787e-05, Final residual = 6.33986e-09, No Iterations 14
smoothSolver:  Solving for Uy, Initial residual = 0.000281544, Final residual = 7.79315e-09, No Iterations 18
smoothSolver:  Solving for Uz, Initial residual = 0.000108347, Final residual = 6.40504e-09, No Iterations 17
GAMG:  Solving for p, Initial residual = 0.0593065, Final residual = 9.98761e-08, No Iterations 46
time step continuity errors : sum local = 1.59153e-11, global = 1.4562e-12, cumulative = 1.75383e-11
smoothSolver:  Solving for epsilon, Initial residual = 1.5172e-05, Final residual = 6.34006e-09, No Iterations 12
smoothSolver:  Solving for k, Initial residual = 0.000124562, Final residual = 6.93702e-09, No Iterations 17
ExecutionTime = 193.42 s  ClockTime = 194 s

Time = 24

smoothSolver:  Solving for Ux, Initial residual = 6.00482e-05, Final residual = 9.76408e-09, No Iterations 15
smoothSolver:  Solving for Uy, Initial residual = 0.000343694, Final residual = 8.9146e-09, No Iterations 18
smoothSolver:  Solving for Uz, Initial residual = 0.000103904, Final residual = 5.75848e-09, No Iterations 17
GAMG:  Solving for p, Initial residual = 0.0491144, Final residual = 9.01608e-08, No Iterations 46
time step continuity errors : sum local = 1.76702e-11, global = -4.61307e-12, cumulative = 1.29253e-11
smoothSolver:  Solving for epsilon, Initial residual = 1.49757e-05, Final residual = 6.25595e-09, No Iterations 12
smoothSolver:  Solving for k, Initial residual = 0.000123995, Final residual = 6.96752e-09, No Iterations 17
ExecutionTime = 200.44 s  ClockTime = 201 s

Time = 25

smoothSolver:  Solving for Ux, Initial residual = 5.35837e-05, Final residual = 8.96301e-09, No Iterations 15
smoothSolver:  Solving for Uy, Initial residual = 0.000243987, Final residual = 7.30656e-09, No Iterations 18
smoothSolver:  Solving for Uz, Initial residual = 9.85858e-05, Final residual = 9.67141e-09, No Iterations 16
GAMG:  Solving for p, Initial residual = 0.0484814, Final residual = 8.45092e-08, No Iterations 46
time step continuity errors : sum local = 1.63229e-11, global = 4.27793e-12, cumulative = 1.72032e-11
smoothSolver:  Solving for epsilon, Initial residual = 1.46293e-05, Final residual = 6.15844e-09, No Iterations 12
smoothSolver:  Solving for k, Initial residual = 0.000123275, Final residual = 6.97144e-09, No Iterations 17
ExecutionTime = 207.51 s  ClockTime = 208 s

Time = 26

smoothSolver:  Solving for Ux, Initial residual = 2.09723e-05, Final residual = 9.13704e-09, No Iterations 13
smoothSolver:  Solving for Uy, Initial residual = 0.000363725, Final residual = 9.83692e-09, No Iterations 18
smoothSolver:  Solving for Uz, Initial residual = 0.000101733, Final residual = 5.7967e-09, No Iterations 17
GAMG:  Solving for p, Initial residual = 0.0417814, Final residual = 9.91908e-08, No Iterations 45
time step continuity errors : sum local = 1.81729e-11, global = -3.88999e-12, cumulative = 1.33132e-11
smoothSolver:  Solving for epsilon, Initial residual = 1.42124e-05, Final residual = 6.05918e-09, No Iterations 12
smoothSolver:  Solving for k, Initial residual = 0.000122586, Final residual = 6.95468e-09, No Iterations 17
ExecutionTime = 214.4 s  ClockTime = 215 s

Time = 27

smoothSolver:  Solving for Ux, Initial residual = 4.16569e-05, Final residual = 6.04285e-09, No Iterations 15
smoothSolver:  Solving for Uy, Initial residual = 0.000437722, Final residual = 6.48302e-09, No Iterations 19
smoothSolver:  Solving for Uz, Initial residual = 0.000105607, Final residual = 6.24818e-09, No Iterations 17
GAMG:  Solving for p, Initial residual = 0.0365435, Final residual = 9.22637e-08, No Iterations 45
time step continuity errors : sum local = 1.43517e-11, global = -1.28889e-12, cumulative = 1.20243e-11
smoothSolver:  Solving for epsilon, Initial residual = 1.38921e-05, Final residual = 5.96484e-09, No Iterations 12
smoothSolver:  Solving for k, Initial residual = 0.000122011, Final residual = 6.94366e-09, No Iterations 17
ExecutionTime = 221.31 s  ClockTime = 222 s

Time = 28

smoothSolver:  Solving for Ux, Initial residual = 2.98622e-05, Final residual = 7.67183e-09, No Iterations 14
smoothSolver:  Solving for Uy, Initial residual = 0.000319689, Final residual = 8.83026e-09, No Iterations 18
smoothSolver:  Solving for Uz, Initial residual = 0.000101271, Final residual = 6.07859e-09, No Iterations 17
GAMG:  Solving for p, Initial residual = 0.0361796, Final residual = 9.09156e-08, No Iterations 45
time step continuity errors : sum local = 1.7987e-11, global = -5.12149e-12, cumulative = 6.90284e-12
smoothSolver:  Solving for epsilon, Initial residual = 1.36331e-05, Final residual = 5.87081e-09, No Iterations 12
smoothSolver:  Solving for k, Initial residual = 0.000121408, Final residual = 6.94098e-09, No Iterations 17
ExecutionTime = 228.16 s  ClockTime = 229 s

Time = 29

smoothSolver:  Solving for Ux, Initial residual = 2.06249e-05, Final residual = 5.76238e-09, No Iterations 14
smoothSolver:  Solving for Uy, Initial residual = 0.000215235, Final residual = 5.9856e-09, No Iterations 18
smoothSolver:  Solving for Uz, Initial residual = 9.81631e-05, Final residual = 9.97785e-09, No Iterations 16
GAMG:  Solving for p, Initial residual = 0.0309393, Final residual = 9.35119e-08, No Iterations 45
time step continuity errors : sum local = 1.38017e-11, global = -4.59694e-13, cumulative = 6.44315e-12
smoothSolver:  Solving for epsilon, Initial residual = 1.33108e-05, Final residual = 5.77052e-09, No Iterations 12
smoothSolver:  Solving for k, Initial residual = 0.000120697, Final residual = 6.94066e-09, No Iterations 17
ExecutionTime = 235.08 s  ClockTime = 236 s

Time = 30

smoothSolver:  Solving for Ux, Initial residual = 2.85245e-05, Final residual = 8.29883e-09, No Iterations 14
smoothSolver:  Solving for Uy, Initial residual = 0.000203919, Final residual = 5.97519e-09, No Iterations 18
smoothSolver:  Solving for Uz, Initial residual = 9.60799e-05, Final residual = 9.59727e-09, No Iterations 16
GAMG:  Solving for p, Initial residual = 0.0280809, Final residual = 9.35635e-08, No Iterations 44
time step continuity errors : sum local = 1.48347e-11, global = -1.58532e-12, cumulative = 4.85783e-12
smoothSolver:  Solving for epsilon, Initial residual = 1.29299e-05, Final residual = 5.6616e-09, No Iterations 12
smoothSolver:  Solving for k, Initial residual = 0.000119905, Final residual = 6.93071e-09, No Iterations 17
ExecutionTime = 241.9 s  ClockTime = 243 s

Time = 31

smoothSolver:  Solving for Ux, Initial residual = 2.02251e-05, Final residual = 5.66685e-09, No Iterations 14
smoothSolver:  Solving for Uy, Initial residual = 0.000243741, Final residual = 6.95384e-09, No Iterations 18
smoothSolver:  Solving for Uz, Initial residual = 9.40345e-05, Final residual = 9.48468e-09, No Iterations 16
GAMG:  Solving for p, Initial residual = 0.0264317, Final residual = 9.39896e-08, No Iterations 44
time step continuity errors : sum local = 1.94687e-11, global = 5.98025e-12, cumulative = 1.08381e-11
smoothSolver:  Solving for epsilon, Initial residual = 1.25224e-05, Final residual = 5.54602e-09, No Iterations 12
smoothSolver:  Solving for k, Initial residual = 0.000119104, Final residual = 6.90619e-09, No Iterations 17
ExecutionTime = 248.76 s  ClockTime = 249 s

Time = 32

smoothSolver:  Solving for Ux, Initial residual = 1.9096e-05, Final residual = 8.29351e-09, No Iterations 13
smoothSolver:  Solving for Uy, Initial residual = 0.000302333, Final residual = 8.22494e-09, No Iterations 18
smoothSolver:  Solving for Uz, Initial residual = 9.52082e-05, Final residual = 9.70189e-09, No Iterations 16
GAMG:  Solving for p, Initial residual = 0.023285, Final residual = 9.77772e-08, No Iterations 44
time step continuity errors : sum local = 1.57831e-11, global = -1.81007e-12, cumulative = 9.02801e-12
smoothSolver:  Solving for epsilon, Initial residual = 1.21592e-05, Final residual = 9.98584e-09, No Iterations 11
smoothSolver:  Solving for k, Initial residual = 0.000118342, Final residual = 6.87641e-09, No Iterations 17
ExecutionTime = 255.55 s  ClockTime = 256 s

Time = 33

smoothSolver:  Solving for Ux, Initial residual = 2.09705e-05, Final residual = 9.26752e-09, No Iterations 13
smoothSolver:  Solving for Uy, Initial residual = 0.000286605, Final residual = 7.84839e-09, No Iterations 18
smoothSolver:  Solving for Uz, Initial residual = 9.48074e-05, Final residual = 9.76664e-09, No Iterations 16
GAMG:  Solving for p, Initial residual = 0.0220387, Final residual = 8.45429e-08, No Iterations 44
time step continuity errors : sum local = 1.63608e-11, global = -4.39253e-12, cumulative = 4.63548e-12
smoothSolver:  Solving for epsilon, Initial residual = 1.1824e-05, Final residual = 9.78141e-09, No Iterations 11
smoothSolver:  Solving for k, Initial residual = 0.000117604, Final residual = 6.84712e-09, No Iterations 17
ExecutionTime = 262.38 s  ClockTime = 263 s

Time = 34

smoothSolver:  Solving for Ux, Initial residual = 1.58515e-05, Final residual = 7.31875e-09, No Iterations 13
smoothSolver:  Solving for Uy, Initial residual = 0.000225345, Final residual = 6.37776e-09, No Iterations 18
smoothSolver:  Solving for Uz, Initial residual = 9.29728e-05, Final residual = 9.53842e-09, No Iterations 16
GAMG:  Solving for p, Initial residual = 0.0201886, Final residual = 9.81637e-08, No Iterations 43
time step continuity errors : sum local = 2.32413e-11, global = -9.2414e-12, cumulative = -4.60592e-12
smoothSolver:  Solving for epsilon, Initial residual = 1.14953e-05, Final residual = 9.57165e-09, No Iterations 11
smoothSolver:  Solving for k, Initial residual = 0.000116853, Final residual = 6.81517e-09, No Iterations 17
ExecutionTime = 269.15 s  ClockTime = 270 s

Time = 35

smoothSolver:  Solving for Ux, Initial residual = 1.722e-05, Final residual = 8.58859e-09, No Iterations 13
smoothSolver:  Solving for Uy, Initial residual = 0.000195059, Final residual = 9.97867e-09, No Iterations 17
smoothSolver:  Solving for Uz, Initial residual = 9.17779e-05, Final residual = 9.2933e-09, No Iterations 16
GAMG:  Solving for p, Initial residual = 0.0175208, Final residual = 9.69321e-08, No Iterations 43
time step continuity errors : sum local = 1.67611e-11, global = -2.8633e-12, cumulative = -7.46923e-12
smoothSolver:  Solving for epsilon, Initial residual = 1.1145e-05, Final residual = 9.35925e-09, No Iterations 11
smoothSolver:  Solving for k, Initial residual = 0.00011608, Final residual = 6.78017e-09, No Iterations 17
ExecutionTime = 275.81 s  ClockTime = 276 s

Time = 36

smoothSolver:  Solving for Ux, Initial residual = 1.69508e-05, Final residual = 8.44273e-09, No Iterations 13
smoothSolver:  Solving for Uy, Initial residual = 0.000200687, Final residual = 5.852e-09, No Iterations 18
smoothSolver:  Solving for Uz, Initial residual = 9.09131e-05, Final residual = 9.16675e-09, No Iterations 16
GAMG:  Solving for p, Initial residual = 0.0167545, Final residual = 8.67045e-08, No Iterations 43
time step continuity errors : sum local = 1.84772e-11, global = 6.3448e-12, cumulative = -1.12443e-12
smoothSolver:  Solving for epsilon, Initial residual = 1.07783e-05, Final residual = 9.1553e-09, No Iterations 11
smoothSolver:  Solving for k, Initial residual = 0.000115304, Final residual = 6.73695e-09, No Iterations 17
ExecutionTime = 282.53 s  ClockTime = 283 s

Time = 37

smoothSolver:  Solving for Ux, Initial residual = 1.51972e-05, Final residual = 7.14947e-09, No Iterations 13
smoothSolver:  Solving for Uy, Initial residual = 0.000225866, Final residual = 6.389e-09, No Iterations 18
smoothSolver:  Solving for Uz, Initial residual = 9.03598e-05, Final residual = 9.14552e-09, No Iterations 16
GAMG:  Solving for p, Initial residual = 0.0152683, Final residual = 9.36436e-08, No Iterations 43
time step continuity errors : sum local = 1.34569e-11, global = 1.08539e-13, cumulative = -1.01589e-12
smoothSolver:  Solving for epsilon, Initial residual = 1.04147e-05, Final residual = 8.95018e-09, No Iterations 11
smoothSolver:  Solving for k, Initial residual = 0.000114541, Final residual = 6.69268e-09, No Iterations 17
ExecutionTime = 289.23 s  ClockTime = 290 s

Time = 38

smoothSolver:  Solving for Ux, Initial residual = 1.56592e-05, Final residual = 7.15511e-09, No Iterations 13
smoothSolver:  Solving for Uy, Initial residual = 0.000239203, Final residual = 6.66128e-09, No Iterations 18
smoothSolver:  Solving for Uz, Initial residual = 8.93677e-05, Final residual = 9.11916e-09, No Iterations 16
GAMG:  Solving for p, Initial residual = 0.0139703, Final residual = 8.65207e-08, No Iterations 43
time step continuity errors : sum local = 1.66962e-11, global = -4.42541e-12, cumulative = -5.4413e-12
smoothSolver:  Solving for epsilon, Initial residual = 1.0063e-05, Final residual = 8.74279e-09, No Iterations 11
smoothSolver:  Solving for k, Initial residual = 0.0001138, Final residual = 6.64501e-09, No Iterations 17
ExecutionTime = 295.93 s  ClockTime = 297 s

Time = 39

smoothSolver:  Solving for Ux, Initial residual = 1.49781e-05, Final residual = 6.97435e-09, No Iterations 13
smoothSolver:  Solving for Uy, Initial residual = 0.000221514, Final residual = 6.23037e-09, No Iterations 18
smoothSolver:  Solving for Uz, Initial residual = 8.79169e-05, Final residual = 9.0129e-09, No Iterations 16
GAMG:  Solving for p, Initial residual = 0.0133824, Final residual = 9.73143e-08, No Iterations 42
time step continuity errors : sum local = 2.12139e-11, global = -7.34925e-12, cumulative = -1.27905e-11
smoothSolver:  Solving for epsilon, Initial residual = 9.73392e-06, Final residual = 8.5541e-09, No Iterations 11
smoothSolver:  Solving for k, Initial residual = 0.000113071, Final residual = 6.59217e-09, No Iterations 17
ExecutionTime = 302.56 s  ClockTime = 303 s

Time = 40

smoothSolver:  Solving for Ux, Initial residual = 1.44094e-05, Final residual = 6.99333e-09, No Iterations 13
smoothSolver:  Solving for Uy, Initial residual = 0.000197803, Final residual = 5.67201e-09, No Iterations 18
smoothSolver:  Solving for Uz, Initial residual = 8.67896e-05, Final residual = 8.86865e-09, No Iterations 16
GAMG:  Solving for p, Initial residual = 0.0119746, Final residual = 8.66209e-08, No Iterations 43
time step continuity errors : sum local = 1.33371e-11, global = 1.2144e-12, cumulative = -1.15761e-11
smoothSolver:  Solving for epsilon, Initial residual = 9.41882e-06, Final residual = 8.36217e-09, No Iterations 11
smoothSolver:  Solving for k, Initial residual = 0.000112344, Final residual = 6.54443e-09, No Iterations 17
ExecutionTime = 309.3 s  ClockTime = 310 s

Time = 41

smoothSolver:  Solving for Ux, Initial residual = 1.45523e-05, Final residual = 7.20123e-09, No Iterations 13
smoothSolver:  Solving for Uy, Initial residual = 0.00018953, Final residual = 9.78123e-09, No Iterations 17
smoothSolver:  Solving for Uz, Initial residual = 8.59387e-05, Final residual = 8.74998e-09, No Iterations 16
GAMG:  Solving for p, Initial residual = 0.011067, Final residual = 9.6531e-08, No Iterations 42
time step continuity errors : sum local = 2.46568e-11, global = -1.11246e-11, cumulative = -2.27008e-11
smoothSolver:  Solving for epsilon, Initial residual = 9.10728e-06, Final residual = 8.16592e-09, No Iterations 11
smoothSolver:  Solving for k, Initial residual = 0.000111619, Final residual = 6.48826e-09, No Iterations 17
ExecutionTime = 315.91 s  ClockTime = 317 s

Time = 42

smoothSolver:  Solving for Ux, Initial residual = 1.41251e-05, Final residual = 6.9171e-09, No Iterations 13
smoothSolver:  Solving for Uy, Initial residual = 0.000194285, Final residual = 9.99899e-09, No Iterations 17
smoothSolver:  Solving for Uz, Initial residual = 8.52584e-05, Final residual = 8.67754e-09, No Iterations 16
GAMG:  Solving for p, Initial residual = 0.0104169, Final residual = 9.0771e-08, No Iterations 42
time step continuity errors : sum local = 1.58683e-11, global = -2.93916e-12, cumulative = -2.56399e-11
smoothSolver:  Solving for epsilon, Initial residual = 8.79742e-06, Final residual = 7.99038e-09, No Iterations 11
smoothSolver:  Solving for k, Initial residual = 0.000110905, Final residual = 6.43544e-09, No Iterations 17
ExecutionTime = 322.57 s  ClockTime = 323 s

Time = 43

smoothSolver:  Solving for Ux, Initial residual = 1.38637e-05, Final residual = 6.67347e-09, No Iterations 13
smoothSolver:  Solving for Uy, Initial residual = 0.000201958, Final residual = 5.78148e-09, No Iterations 18
smoothSolver:  Solving for Uz, Initial residual = 8.43631e-05, Final residual = 8.60885e-09, No Iterations 16
GAMG:  Solving for p, Initial residual = 0.00957158, Final residual = 9.44593e-08, No Iterations 41
time step continuity errors : sum local = 2.29348e-11, global = 9.43411e-12, cumulative = -1.62058e-11
smoothSolver:  Solving for epsilon, Initial residual = 8.4986e-06, Final residual = 7.81106e-09, No Iterations 11
smoothSolver:  Solving for k, Initial residual = 0.000110207, Final residual = 6.37853e-09, No Iterations 17
ExecutionTime = 329.13 s  ClockTime = 330 s

Time = 44

smoothSolver:  Solving for Ux, Initial residual = 1.37421e-05, Final residual = 6.61925e-09, No Iterations 13
smoothSolver:  Solving for Uy, Initial residual = 0.000199504, Final residual = 5.70716e-09, No Iterations 18
smoothSolver:  Solving for Uz, Initial residual = 8.32437e-05, Final residual = 8.51518e-09, No Iterations 16
GAMG:  Solving for p, Initial residual = 0.00901962, Final residual = 9.89249e-08, No Iterations 41
time step continuity errors : sum local = 1.85531e-11, global = 4.62083e-12, cumulative = -1.1585e-11
smoothSolver:  Solving for epsilon, Initial residual = 8.21294e-06, Final residual = 7.63242e-09, No Iterations 11
smoothSolver:  Solving for k, Initial residual = 0.000109525, Final residual = 6.32894e-09, No Iterations 17
ExecutionTime = 335.69 s  ClockTime = 336 s

Time = 45

smoothSolver:  Solving for Ux, Initial residual = 1.34266e-05, Final residual = 6.58199e-09, No Iterations 13
smoothSolver:  Solving for Uy, Initial residual = 0.000188513, Final residual = 9.68119e-09, No Iterations 17
smoothSolver:  Solving for Uz, Initial residual = 8.21846e-05, Final residual = 8.40089e-09, No Iterations 16
GAMG:  Solving for p, Initial residual = 0.0083908, Final residual = 9.83524e-08, No Iterations 41
time step continuity errors : sum local = 1.73209e-11, global = 3.33328e-12, cumulative = -8.25172e-12
smoothSolver:  Solving for epsilon, Initial residual = 7.93728e-06, Final residual = 7.46621e-09, No Iterations 11
smoothSolver:  Solving for k, Initial residual = 0.000108857, Final residual = 6.27273e-09, No Iterations 17
ExecutionTime = 342.2 s  ClockTime = 343 s

Time = 46

smoothSolver:  Solving for Ux, Initial residual = 1.33219e-05, Final residual = 6.6357e-09, No Iterations 13
smoothSolver:  Solving for Uy, Initial residual = 0.000179553, Final residual = 9.31802e-09, No Iterations 17
smoothSolver:  Solving for Uz, Initial residual = 8.13344e-05, Final residual = 8.29172e-09, No Iterations 16
GAMG:  Solving for p, Initial residual = 0.0076825, Final residual = 8.93044e-08, No Iterations 40
time step continuity errors : sum local = 1.45901e-11, global = 2.07568e-12, cumulative = -6.17604e-12
smoothSolver:  Solving for epsilon, Initial residual = 7.67004e-06, Final residual = 7.30432e-09, No Iterations 11
smoothSolver:  Solving for k, Initial residual = 0.0001082, Final residual = 6.22107e-09, No Iterations 17
ExecutionTime = 348.67 s  ClockTime = 349 s

Time = 47

smoothSolver:  Solving for Ux, Initial residual = 1.32016e-05, Final residual = 6.60366e-09, No Iterations 13
smoothSolver:  Solving for Uy, Initial residual = 0.000177061, Final residual = 9.23147e-09, No Iterations 17
smoothSolver:  Solving for Uz, Initial residual = 8.05763e-05, Final residual = 8.19618e-09, No Iterations 16
GAMG:  Solving for p, Initial residual = 0.00732495, Final residual = 9.65272e-08, No Iterations 41
time step continuity errors : sum local = 1.4836e-11, global = 1.24453e-12, cumulative = -4.93151e-12
smoothSolver:  Solving for epsilon, Initial residual = 7.4195e-06, Final residual = 7.14547e-09, No Iterations 11
smoothSolver:  Solving for k, Initial residual = 0.000107557, Final residual = 6.16832e-09, No Iterations 17
ExecutionTime = 355.22 s  ClockTime = 356 s

Time = 48

smoothSolver:  Solving for Ux, Initial residual = 1.30146e-05, Final residual = 6.48704e-09, No Iterations 13
smoothSolver:  Solving for Uy, Initial residual = 0.00017835, Final residual = 9.28542e-09, No Iterations 17
smoothSolver:  Solving for Uz, Initial residual = 7.97696e-05, Final residual = 8.10719e-09, No Iterations 16
GAMG:  Solving for p, Initial residual = 0.00692516, Final residual = 9.19436e-08, No Iterations 41
time step continuity errors : sum local = 1.58851e-11, global = 2.92062e-12, cumulative = -2.01089e-12
smoothSolver:  Solving for epsilon, Initial residual = 7.17945e-06, Final residual = 6.98715e-09, No Iterations 11
smoothSolver:  Solving for k, Initial residual = 0.000106933, Final residual = 6.12033e-09, No Iterations 17
ExecutionTime = 361.76 s  ClockTime = 362 s

Time = 49

smoothSolver:  Solving for Ux, Initial residual = 1.28712e-05, Final residual = 6.4136e-09, No Iterations 13
smoothSolver:  Solving for Uy, Initial residual = 0.000178246, Final residual = 9.27012e-09, No Iterations 17
smoothSolver:  Solving for Uz, Initial residual = 7.88407e-05, Final residual = 8.00788e-09, No Iterations 16
GAMG:  Solving for p, Initial residual = 0.00648683, Final residual = 9.65602e-08, No Iterations 40
time step continuity errors : sum local = 1.44112e-11, global = 7.8186e-13, cumulative = -1.22903e-12
smoothSolver:  Solving for epsilon, Initial residual = 6.95312e-06, Final residual = 6.83372e-09, No Iterations 11
smoothSolver:  Solving for k, Initial residual = 0.000106328, Final residual = 6.07405e-09, No Iterations 17
ExecutionTime = 368.24 s  ClockTime = 369 s

Time = 50

smoothSolver:  Solving for Ux, Initial residual = 1.27135e-05, Final residual = 6.38372e-09, No Iterations 13
smoothSolver:  Solving for Uy, Initial residual = 0.000173903, Final residual = 9.08034e-09, No Iterations 17
smoothSolver:  Solving for Uz, Initial residual = 7.7882e-05, Final residual = 7.89991e-09, No Iterations 16
GAMG:  Solving for p, Initial residual = 0.00612342, Final residual = 8.82392e-08, No Iterations 41
time step continuity errors : sum local = 2.13006e-11, global = 8.97002e-12, cumulative = 7.74099e-12
smoothSolver:  Solving for epsilon, Initial residual = 6.73785e-06, Final residual = 6.69454e-09, No Iterations 11
smoothSolver:  Solving for k, Initial residual = 0.000105743, Final residual = 6.03047e-09, No Iterations 17
ExecutionTime = 374.77 s  ClockTime = 375 s

Time = 51

smoothSolver:  Solving for Ux, Initial residual = 1.258e-05, Final residual = 6.38404e-09, No Iterations 13
smoothSolver:  Solving for Uy, Initial residual = 0.000168111, Final residual = 8.84175e-09, No Iterations 17
smoothSolver:  Solving for Uz, Initial residual = 7.70013e-05, Final residual = 7.7944e-09, No Iterations 16
GAMG:  Solving for p, Initial residual = 0.00571796, Final residual = 9.87872e-08, No Iterations 40
time step continuity errors : sum local = 1.88901e-11, global = -5.00763e-12, cumulative = 2.73336e-12
smoothSolver:  Solving for epsilon, Initial residual = 6.53041e-06, Final residual = 6.55747e-09, No Iterations 11
smoothSolver:  Solving for k, Initial residual = 0.000105172, Final residual = 5.9931e-09, No Iterations 17
ExecutionTime = 381.22 s  ClockTime = 382 s

Time = 52

smoothSolver:  Solving for Ux, Initial residual = 1.24834e-05, Final residual = 6.38257e-09, No Iterations 13
smoothSolver:  Solving for Uy, Initial residual = 0.000164237, Final residual = 8.68892e-09, No Iterations 17
smoothSolver:  Solving for Uz, Initial residual = 7.62187e-05, Final residual = 7.69889e-09, No Iterations 16
GAMG:  Solving for p, Initial residual = 0.00540831, Final residual = 9.20378e-08, No Iterations 38
time step continuity errors : sum local = 1.52772e-11, global = 2.31636e-12, cumulative = 5.04973e-12
smoothSolver:  Solving for epsilon, Initial residual = 6.33234e-06, Final residual = 6.42177e-09, No Iterations 11
smoothSolver:  Solving for k, Initial residual = 0.000104615, Final residual = 5.95234e-09, No Iterations 17
ExecutionTime = 387.55 s  ClockTime = 388 s

Time = 53

smoothSolver:  Solving for Ux, Initial residual = 1.23697e-05, Final residual = 6.34399e-09, No Iterations 13
smoothSolver:  Solving for Uy, Initial residual = 0.000162709, Final residual = 8.63781e-09, No Iterations 17
smoothSolver:  Solving for Uz, Initial residual = 7.54594e-05, Final residual = 7.61172e-09, No Iterations 16
GAMG:  Solving for p, Initial residual = 0.00520886, Final residual = 8.73577e-08, No Iterations 39
time step continuity errors : sum local = 1.72396e-11, global = -4.87438e-12, cumulative = 1.75351e-13
smoothSolver:  Solving for epsilon, Initial residual = 6.14327e-06, Final residual = 6.29403e-09, No Iterations 11
smoothSolver:  Solving for k, Initial residual = 0.000104069, Final residual = 5.91744e-09, No Iterations 17
ExecutionTime = 393.94 s  ClockTime = 395 s

Time = 54

smoothSolver:  Solving for Ux, Initial residual = 1.22485e-05, Final residual = 6.30173e-09, No Iterations 13
smoothSolver:  Solving for Uy, Initial residual = 0.000161796, Final residual = 8.60653e-09, No Iterations 17
smoothSolver:  Solving for Uz, Initial residual = 7.46546e-05, Final residual = 7.52503e-09, No Iterations 16
GAMG:  Solving for p, Initial residual = 0.00496059, Final residual = 9.0234e-08, No Iterations 39
time step continuity errors : sum local = 1.59606e-11, global = 3.35163e-12, cumulative = 3.52698e-12
smoothSolver:  Solving for epsilon, Initial residual = 5.96482e-06, Final residual = 6.17025e-09, No Iterations 11
smoothSolver:  Solving for k, Initial residual = 0.000103535, Final residual = 5.88696e-09, No Iterations 17
ExecutionTime = 400.33 s  ClockTime = 401 s

Time = 55

smoothSolver:  Solving for Ux, Initial residual = 1.21299e-05, Final residual = 6.27448e-09, No Iterations 13
smoothSolver:  Solving for Uy, Initial residual = 0.000159621, Final residual = 8.51637e-09, No Iterations 17
smoothSolver:  Solving for Uz, Initial residual = 7.38038e-05, Final residual = 7.43454e-09, No Iterations 16
GAMG:  Solving for p, Initial residual = 0.00470707, Final residual = 8.88787e-08, No Iterations 40
time step continuity errors : sum local = 1.73034e-11, global = -4.57079e-12, cumulative = -1.04382e-12
smoothSolver:  Solving for epsilon, Initial residual = 5.80044e-06, Final residual = 6.04896e-09, No Iterations 11
smoothSolver:  Solving for k, Initial residual = 0.000103015, Final residual = 5.85399e-09, No Iterations 17
ExecutionTime = 406.8 s  ClockTime = 407 s

Time = 56

smoothSolver:  Solving for Ux, Initial residual = 1.20199e-05, Final residual = 6.26354e-09, No Iterations 13
smoothSolver:  Solving for Uy, Initial residual = 0.000156237, Final residual = 8.37816e-09, No Iterations 17
smoothSolver:  Solving for Uz, Initial residual = 7.29648e-05, Final residual = 7.34866e-09, No Iterations 16
GAMG:  Solving for p, Initial residual = 0.00446612, Final residual = 9.07565e-08, No Iterations 40
time step continuity errors : sum local = 1.7614e-11, global = -4.91489e-12, cumulative = -5.95871e-12
smoothSolver:  Solving for epsilon, Initial residual = 5.64646e-06, Final residual = 5.93079e-09, No Iterations 11
smoothSolver:  Solving for k, Initial residual = 0.000102507, Final residual = 5.82131e-09, No Iterations 17
ExecutionTime = 413.28 s  ClockTime = 414 s

Time = 57

smoothSolver:  Solving for Ux, Initial residual = 1.19279e-05, Final residual = 6.26293e-09, No Iterations 13
smoothSolver:  Solving for Uy, Initial residual = 0.000152997, Final residual = 8.24652e-09, No Iterations 17
smoothSolver:  Solving for Uz, Initial residual = 7.21791e-05, Final residual = 7.27221e-09, No Iterations 16
GAMG:  Solving for p, Initial residual = 0.00425692, Final residual = 9.63434e-08, No Iterations 39
time step continuity errors : sum local = 1.8576e-11, global = -4.90825e-12, cumulative = -1.0867e-11
smoothSolver:  Solving for epsilon, Initial residual = 5.50231e-06, Final residual = 5.81999e-09, No Iterations 11
smoothSolver:  Solving for k, Initial residual = 0.00010201, Final residual = 5.79321e-09, No Iterations 17
ExecutionTime = 419.64 s  ClockTime = 420 s

Time = 58

smoothSolver:  Solving for Ux, Initial residual = 1.18409e-05, Final residual = 6.24804e-09, No Iterations 13
smoothSolver:  Solving for Uy, Initial residual = 0.000150767, Final residual = 8.15757e-09, No Iterations 17
smoothSolver:  Solving for Uz, Initial residual = 7.14449e-05, Final residual = 7.20754e-09, No Iterations 16
GAMG:  Solving for p, Initial residual = 0.00411539, Final residual = 9.08883e-08, No Iterations 39
time step continuity errors : sum local = 1.87355e-11, global = -5.8678e-12, cumulative = -1.67348e-11
smoothSolver:  Solving for epsilon, Initial residual = 5.36534e-06, Final residual = 5.71828e-09, No Iterations 11
smoothSolver:  Solving for k, Initial residual = 0.000101524, Final residual = 5.76242e-09, No Iterations 17
ExecutionTime = 426.07 s  ClockTime = 427 s

Time = 59

smoothSolver:  Solving for Ux, Initial residual = 1.17491e-05, Final residual = 6.22719e-09, No Iterations 13
smoothSolver:  Solving for Uy, Initial residual = 0.000149229, Final residual = 8.09899e-09, No Iterations 17
smoothSolver:  Solving for Uz, Initial residual = 7.07248e-05, Final residual = 7.14928e-09, No Iterations 16
GAMG:  Solving for p, Initial residual = 0.00397859, Final residual = 9.17779e-08, No Iterations 39
time step continuity errors : sum local = 1.48998e-11, global = -1.91326e-12, cumulative = -1.8648e-11
smoothSolver:  Solving for epsilon, Initial residual = 5.23541e-06, Final residual = 5.61937e-09, No Iterations 11
smoothSolver:  Solving for k, Initial residual = 0.000101047, Final residual = 5.73261e-09, No Iterations 17
ExecutionTime = 432.49 s  ClockTime = 433 s

Time = 60

smoothSolver:  Solving for Ux, Initial residual = 1.16561e-05, Final residual = 6.20799e-09, No Iterations 13
smoothSolver:  Solving for Uy, Initial residual = 0.000147568, Final residual = 8.03137e-09, No Iterations 17
smoothSolver:  Solving for Uz, Initial residual = 6.99884e-05, Final residual = 7.09031e-09, No Iterations 16
GAMG:  Solving for p, Initial residual = 0.00381396, Final residual = 9.21373e-08, No Iterations 39
time step continuity errors : sum local = 1.55816e-11, global = 2.45699e-12, cumulative = -1.6191e-11
smoothSolver:  Solving for epsilon, Initial residual = 5.11113e-06, Final residual = 5.52282e-09, No Iterations 11
smoothSolver:  Solving for k, Initial residual = 0.00010058, Final residual = 5.70676e-09, No Iterations 17
ExecutionTime = 438.89 s  ClockTime = 440 s

Time = 61

smoothSolver:  Solving for Ux, Initial residual = 1.1568e-05, Final residual = 6.192e-09, No Iterations 13
smoothSolver:  Solving for Uy, Initial residual = 0.000145364, Final residual = 7.94123e-09, No Iterations 17
smoothSolver:  Solving for Uz, Initial residual = 6.92452e-05, Final residual = 7.03625e-09, No Iterations 16
GAMG:  Solving for p, Initial residual = 0.00365527, Final residual = 8.94374e-08, No Iterations 39
time step continuity errors : sum local = 1.49475e-11, global = -2.3564e-12, cumulative = -1.85474e-11
smoothSolver:  Solving for epsilon, Initial residual = 4.99338e-06, Final residual = 9.84182e-09, No Iterations 10
smoothSolver:  Solving for k, Initial residual = 0.000100122, Final residual = 5.67785e-09, No Iterations 17
ExecutionTime = 445.32 s  ClockTime = 446 s

Time = 62

smoothSolver:  Solving for Ux, Initial residual = 1.14892e-05, Final residual = 6.18661e-09, No Iterations 13
smoothSolver:  Solving for Uy, Initial residual = 0.000142951, Final residual = 7.83964e-09, No Iterations 17
smoothSolver:  Solving for Uz, Initial residual = 6.85281e-05, Final residual = 6.9806e-09, No Iterations 16
GAMG:  Solving for p, Initial residual = 0.00351269, Final residual = 8.67234e-08, No Iterations 39
time step continuity errors : sum local = 1.74091e-11, global = -5.07675e-12, cumulative = -2.36242e-11
smoothSolver:  Solving for epsilon, Initial residual = 4.88233e-06, Final residual = 9.67738e-09, No Iterations 10
smoothSolver:  Solving for k, Initial residual = 9.96728e-05, Final residual = 9.99124e-09, No Iterations 16
ExecutionTime = 451.68 s  ClockTime = 452 s

Time = 63

smoothSolver:  Solving for Ux, Initial residual = 1.14174e-05, Final residual = 6.18201e-09, No Iterations 13
smoothSolver:  Solving for Uy, Initial residual = 0.000140853, Final residual = 7.74906e-09, No Iterations 17
smoothSolver:  Solving for Uz, Initial residual = 6.78512e-05, Final residual = 6.93076e-09, No Iterations 16
GAMG:  Solving for p, Initial residual = 0.00340475, Final residual = 8.94789e-08, No Iterations 39
time step continuity errors : sum local = 1.72776e-11, global = -4.61161e-12, cumulative = -2.82358e-11
smoothSolver:  Solving for epsilon, Initial residual = 4.7779e-06, Final residual = 9.52128e-09, No Iterations 10
smoothSolver:  Solving for k, Initial residual = 9.92315e-05, Final residual = 9.94271e-09, No Iterations 16
ExecutionTime = 458.05 s  ClockTime = 459 s

Time = 64

smoothSolver:  Solving for Ux, Initial residual = 1.13465e-05, Final residual = 6.17245e-09, No Iterations 13
smoothSolver:  Solving for Uy, Initial residual = 0.000139183, Final residual = 7.67691e-09, No Iterations 17
smoothSolver:  Solving for Uz, Initial residual = 6.7203e-05, Final residual = 6.88447e-09, No Iterations 16
GAMG:  Solving for p, Initial residual = 0.003319, Final residual = 8.6264e-08, No Iterations 39
time step continuity errors : sum local = 1.93373e-11, global = -7.197e-12, cumulative = -3.54328e-11
smoothSolver:  Solving for epsilon, Initial residual = 4.67969e-06, Final residual = 9.37233e-09, No Iterations 10
smoothSolver:  Solving for k, Initial residual = 9.87974e-05, Final residual = 9.90092e-09, No Iterations 16
ExecutionTime = 464.4 s  ClockTime = 465 s

Time = 65

smoothSolver:  Solving for Ux, Initial residual = 1.1275e-05, Final residual = 6.16008e-09, No Iterations 13
smoothSolver:  Solving for Uy, Initial residual = 0.000137677, Final residual = 7.60869e-09, No Iterations 17
smoothSolver:  Solving for Uz, Initial residual = 6.65711e-05, Final residual = 6.83733e-09, No Iterations 16
GAMG:  Solving for p, Initial residual = 0.00322664, Final residual = 8.7597e-08, No Iterations 39
time step continuity errors : sum local = 1.73208e-11, global = -4.82477e-12, cumulative = -4.02576e-11
smoothSolver:  Solving for epsilon, Initial residual = 4.58865e-06, Final residual = 9.23054e-09, No Iterations 10
smoothSolver:  Solving for k, Initial residual = 9.83704e-05, Final residual = 9.85843e-09, No Iterations 16
ExecutionTime = 470.74 s  ClockTime = 471 s

Time = 66

smoothSolver:  Solving for Ux, Initial residual = 1.12056e-05, Final residual = 6.14888e-09, No Iterations 13
smoothSolver:  Solving for Uy, Initial residual = 0.000136026, Final residual = 7.53913e-09, No Iterations 17
smoothSolver:  Solving for Uz, Initial residual = 6.59539e-05, Final residual = 6.78906e-09, No Iterations 16
GAMG:  Solving for p, Initial residual = 0.00312489, Final residual = 8.73434e-08, No Iterations 39
time step continuity errors : sum local = 1.89797e-11, global = 6.67617e-12, cumulative = -3.35814e-11
smoothSolver:  Solving for epsilon, Initial residual = 4.50284e-06, Final residual = 9.09499e-09, No Iterations 10
smoothSolver:  Solving for k, Initial residual = 9.79501e-05, Final residual = 9.81354e-09, No Iterations 16
ExecutionTime = 477.05 s  ClockTime = 478 s

Time = 67

smoothSolver:  Solving for Ux, Initial residual = 1.11407e-05, Final residual = 6.14218e-09, No Iterations 13
smoothSolver:  Solving for Uy, Initial residual = 0.00013421, Final residual = 7.45996e-09, No Iterations 17
smoothSolver:  Solving for Uz, Initial residual = 6.53608e-05, Final residual = 6.74068e-09, No Iterations 16
GAMG:  Solving for p, Initial residual = 0.00303198, Final residual = 8.84564e-08, No Iterations 39
time step continuity errors : sum local = 1.54312e-11, global = -2.96023e-12, cumulative = -3.65416e-11
smoothSolver:  Solving for epsilon, Initial residual = 4.42188e-06, Final residual = 8.9659e-09, No Iterations 10
smoothSolver:  Solving for k, Initial residual = 9.75359e-05, Final residual = 9.77127e-09, No Iterations 16
ExecutionTime = 483.41 s  ClockTime = 484 s

Time = 68

smoothSolver:  Solving for Ux, Initial residual = 1.10807e-05, Final residual = 6.1332e-09, No Iterations 13
smoothSolver:  Solving for Uy, Initial residual = 0.000132429, Final residual = 7.38057e-09, No Iterations 17
smoothSolver:  Solving for Uz, Initial residual = 6.47978e-05, Final residual = 6.69336e-09, No Iterations 16
GAMG:  Solving for p, Initial residual = 0.00295265, Final residual = 9.17263e-08, No Iterations 39
time step continuity errors : sum local = 1.43265e-11, global = 1.40426e-12, cumulative = -3.51374e-11
smoothSolver:  Solving for epsilon, Initial residual = 4.34536e-06, Final residual = 8.84283e-09, No Iterations 10
smoothSolver:  Solving for k, Initial residual = 9.71275e-05, Final residual = 9.72749e-09, No Iterations 16
ExecutionTime = 489.76 s  ClockTime = 490 s

Time = 69

smoothSolver:  Solving for Ux, Initial residual = 1.10229e-05, Final residual = 6.12829e-09, No Iterations 13
smoothSolver:  Solving for Uy, Initial residual = 0.000130846, Final residual = 7.30933e-09, No Iterations 17
smoothSolver:  Solving for Uz, Initial residual = 6.42592e-05, Final residual = 6.64455e-09, No Iterations 16
GAMG:  Solving for p, Initial residual = 0.00289494, Final residual = 9.1268e-08, No Iterations 39
time step continuity errors : sum local = 1.61641e-11, global = 3.08076e-12, cumulative = -3.20566e-11
smoothSolver:  Solving for epsilon, Initial residual = 4.2725e-06, Final residual = 8.72574e-09, No Iterations 10
smoothSolver:  Solving for k, Initial residual = 9.67246e-05, Final residual = 9.68821e-09, No Iterations 16
ExecutionTime = 496.09 s  ClockTime = 497 s

Time = 70

smoothSolver:  Solving for Ux, Initial residual = 1.09658e-05, Final residual = 6.1175e-09, No Iterations 13
smoothSolver:  Solving for Uy, Initial residual = 0.000129418, Final residual = 7.2421e-09, No Iterations 17
smoothSolver:  Solving for Uz, Initial residual = 6.37431e-05, Final residual = 6.59673e-09, No Iterations 16
GAMG:  Solving for p, Initial residual = 0.00283976, Final residual = 8.80594e-08, No Iterations 39
time step continuity errors : sum local = 1.2473e-11, global = 5.16995e-14, cumulative = -3.20049e-11
smoothSolver:  Solving for epsilon, Initial residual = 4.20345e-06, Final residual = 8.6135e-09, No Iterations 10
smoothSolver:  Solving for k, Initial residual = 9.63266e-05, Final residual = 9.64506e-09, No Iterations 16
ExecutionTime = 502.46 s  ClockTime = 503 s

Time = 71

smoothSolver:  Solving for Ux, Initial residual = 1.09098e-05, Final residual = 6.10715e-09, No Iterations 13
smoothSolver:  Solving for Uy, Initial residual = 0.000128011, Final residual = 7.17998e-09, No Iterations 17
smoothSolver:  Solving for Uz, Initial residual = 6.32414e-05, Final residual = 6.54637e-09, No Iterations 16
GAMG:  Solving for p, Initial residual = 0.0027769, Final residual = 9.18057e-08, No Iterations 39
time step continuity errors : sum local = 1.75633e-11, global = -4.50575e-12, cumulative = -3.65107e-11
smoothSolver:  Solving for epsilon, Initial residual = 4.13905e-06, Final residual = 8.50681e-09, No Iterations 10
smoothSolver:  Solving for k, Initial residual = 9.59337e-05, Final residual = 9.60577e-09, No Iterations 16
ExecutionTime = 508.83 s  ClockTime = 509 s

Time = 72

smoothSolver:  Solving for Ux, Initial residual = 1.08561e-05, Final residual = 6.09335e-09, No Iterations 13
smoothSolver:  Solving for Uy, Initial residual = 0.000126538, Final residual = 7.11436e-09, No Iterations 17
smoothSolver:  Solving for Uz, Initial residual = 6.27527e-05, Final residual = 6.49625e-09, No Iterations 16
GAMG:  Solving for p, Initial residual = 0.00271305, Final residual = 9.28831e-08, No Iterations 39
time step continuity errors : sum local = 1.38495e-11, global = 6.88084e-13, cumulative = -3.58226e-11
smoothSolver:  Solving for epsilon, Initial residual = 4.07803e-06, Final residual = 8.4046e-09, No Iterations 10
smoothSolver:  Solving for k, Initial residual = 9.55455e-05, Final residual = 9.56619e-09, No Iterations 16
ExecutionTime = 515.17 s  ClockTime = 516 s

Time = 73

smoothSolver:  Solving for Ux, Initial residual = 1.0805e-05, Final residual = 6.08329e-09, No Iterations 13
smoothSolver:  Solving for Uy, Initial residual = 0.00012504, Final residual = 7.04539e-09, No Iterations 17
smoothSolver:  Solving for Uz, Initial residual = 6.22825e-05, Final residual = 6.44571e-09, No Iterations 16
GAMG:  Solving for p, Initial residual = 0.00265822, Final residual = 8.93141e-08, No Iterations 39
time step continuity errors : sum local = 1.93585e-11, global = -6.6474e-12, cumulative = -4.247e-11
smoothSolver:  Solving for epsilon, Initial residual = 4.02095e-06, Final residual = 8.30654e-09, No Iterations 10
smoothSolver:  Solving for k, Initial residual = 9.51617e-05, Final residual = 9.52404e-09, No Iterations 16
ExecutionTime = 521.53 s  ClockTime = 522 s

Time = 74

smoothSolver:  Solving for Ux, Initial residual = 1.0756e-05, Final residual = 6.07096e-09, No Iterations 13
smoothSolver:  Solving for Uy, Initial residual = 0.000123604, Final residual = 6.97746e-09, No Iterations 17
smoothSolver:  Solving for Uz, Initial residual = 6.18291e-05, Final residual = 6.39415e-09, No Iterations 16
GAMG:  Solving for p, Initial residual = 0.00261535, Final residual = 8.9147e-08, No Iterations 39
time step continuity errors : sum local = 1.65828e-11, global = 3.91606e-12, cumulative = -3.85539e-11
smoothSolver:  Solving for epsilon, Initial residual = 3.96702e-06, Final residual = 8.21146e-09, No Iterations 10
smoothSolver:  Solving for k, Initial residual = 9.47824e-05, Final residual = 9.48391e-09, No Iterations 16
ExecutionTime = 527.92 s  ClockTime = 529 s

Time = 75

smoothSolver:  Solving for Ux, Initial residual = 1.07085e-05, Final residual = 6.05492e-09, No Iterations 13
smoothSolver:  Solving for Uy, Initial residual = 0.000122281, Final residual = 6.91524e-09, No Iterations 17
smoothSolver:  Solving for Uz, Initial residual = 6.13921e-05, Final residual = 6.3449e-09, No Iterations 16
GAMG:  Solving for p, Initial residual = 0.002581, Final residual = 8.84572e-08, No Iterations 39
time step continuity errors : sum local = 1.6797e-11, global = 4.20619e-12, cumulative = -3.43477e-11
smoothSolver:  Solving for epsilon, Initial residual = 3.91504e-06, Final residual = 8.12065e-09, No Iterations 10
smoothSolver:  Solving for k, Initial residual = 9.44073e-05, Final residual = 9.44453e-09, No Iterations 16
ExecutionTime = 534.3 s  ClockTime = 535 s

Time = 76

smoothSolver:  Solving for Ux, Initial residual = 1.06622e-05, Final residual = 6.03783e-09, No Iterations 13
smoothSolver:  Solving for Uy, Initial residual = 0.000121041, Final residual = 6.85226e-09, No Iterations 17
smoothSolver:  Solving for Uz, Initial residual = 6.09686e-05, Final residual = 6.29828e-09, No Iterations 16
GAMG:  Solving for p, Initial residual = 0.00254569, Final residual = 8.73243e-08, No Iterations 39
time step continuity errors : sum local = 2.06555e-11, global = -8.32864e-12, cumulative = -4.26764e-11
smoothSolver:  Solving for epsilon, Initial residual = 3.86466e-06, Final residual = 8.03313e-09, No Iterations 10
smoothSolver:  Solving for k, Initial residual = 9.40361e-05, Final residual = 9.40352e-09, No Iterations 16
ExecutionTime = 540.69 s  ClockTime = 541 s

Time = 77

smoothSolver:  Solving for Ux, Initial residual = 1.06176e-05, Final residual = 6.0242e-09, No Iterations 13
smoothSolver:  Solving for Uy, Initial residual = 0.000119824, Final residual = 6.79605e-09, No Iterations 17
smoothSolver:  Solving for Uz, Initial residual = 6.05569e-05, Final residual = 6.25606e-09, No Iterations 16
GAMG:  Solving for p, Initial residual = 0.00250613, Final residual = 8.75171e-08, No Iterations 39
time step continuity errors : sum local = 2.13279e-11, global = 8.83384e-12, cumulative = -3.38425e-11
smoothSolver:  Solving for epsilon, Initial residual = 3.81596e-06, Final residual = 7.94934e-09, No Iterations 10
smoothSolver:  Solving for k, Initial residual = 9.36685e-05, Final residual = 9.36084e-09, No Iterations 16
ExecutionTime = 547.05 s  ClockTime = 548 s

Time = 78

smoothSolver:  Solving for Ux, Initial residual = 1.05746e-05, Final residual = 6.00295e-09, No Iterations 13
smoothSolver:  Solving for Uy, Initial residual = 0.000118604, Final residual = 6.733e-09, No Iterations 17
smoothSolver:  Solving for Uz, Initial residual = 6.01587e-05, Final residual = 6.21646e-09, No Iterations 16
GAMG:  Solving for p, Initial residual = 0.00246691, Final residual = 9.95554e-08, No Iterations 38
time step continuity errors : sum local = 1.7269e-11, global = 3.20686e-12, cumulative = -3.06357e-11
smoothSolver:  Solving for epsilon, Initial residual = 3.76891e-06, Final residual = 7.86838e-09, No Iterations 10
smoothSolver:  Solving for k, Initial residual = 9.33041e-05, Final residual = 9.31928e-09, No Iterations 16
ExecutionTime = 553.34 s  ClockTime = 554 s

Time = 79

smoothSolver:  Solving for Ux, Initial residual = 1.05332e-05, Final residual = 5.98258e-09, No Iterations 13
smoothSolver:  Solving for Uy, Initial residual = 0.000117411, Final residual = 6.67187e-09, No Iterations 17
smoothSolver:  Solving for Uz, Initial residual = 5.97724e-05, Final residual = 6.18002e-09, No Iterations 16
GAMG:  Solving for p, Initial residual = 0.00243678, Final residual = 8.63e-08, No Iterations 39
time step continuity errors : sum local = 2.40705e-11, global = 1.17939e-11, cumulative = -1.88417e-11
smoothSolver:  Solving for epsilon, Initial residual = 3.72374e-06, Final residual = 7.79006e-09, No Iterations 10
smoothSolver:  Solving for k, Initial residual = 9.29426e-05, Final residual = 9.27761e-09, No Iterations 16
ExecutionTime = 559.7 s  ClockTime = 560 s

Time = 80

smoothSolver:  Solving for Ux, Initial residual = 1.04931e-05, Final residual = 5.96399e-09, No Iterations 13
smoothSolver:  Solving for Uy, Initial residual = 0.000116274, Final residual = 6.61079e-09, No Iterations 17
smoothSolver:  Solving for Uz, Initial residual = 5.9395e-05, Final residual = 6.14348e-09, No Iterations 16
GAMG:  Solving for p, Initial residual = 0.00241335, Final residual = 8.81846e-08, No Iterations 39
time step continuity errors : sum local = 1.35947e-11, global = -1.19867e-12, cumulative = -2.00404e-11
smoothSolver:  Solving for epsilon, Initial residual = 3.68078e-06, Final residual = 7.71389e-09, No Iterations 10
smoothSolver:  Solving for k, Initial residual = 9.25845e-05, Final residual = 9.23608e-09, No Iterations 16
ExecutionTime = 566.1 s  ClockTime = 567 s

Time = 81

smoothSolver:  Solving for Ux, Initial residual = 1.04542e-05, Final residual = 5.93618e-09, No Iterations 13
smoothSolver:  Solving for Uy, Initial residual = 0.000115201, Final residual = 6.55294e-09, No Iterations 17
smoothSolver:  Solving for Uz, Initial residual = 5.9029e-05, Final residual = 6.10614e-09, No Iterations 16
GAMG:  Solving for p, Initial residual = 0.00239052, Final residual = 9.86907e-08, No Iterations 38
time step continuity errors : sum local = 1.54383e-11, global = -1.48339e-12, cumulative = -2.15238e-11
smoothSolver:  Solving for epsilon, Initial residual = 3.63948e-06, Final residual = 7.64036e-09, No Iterations 10
smoothSolver:  Solving for k, Initial residual = 9.22294e-05, Final residual = 9.19542e-09, No Iterations 16
ExecutionTime = 572.41 s  ClockTime = 573 s

Time = 82

smoothSolver:  Solving for Ux, Initial residual = 1.04165e-05, Final residual = 5.91322e-09, No Iterations 13
smoothSolver:  Solving for Uy, Initial residual = 0.000114167, Final residual = 6.49742e-09, No Iterations 17
smoothSolver:  Solving for Uz, Initial residual = 5.86756e-05, Final residual = 6.06775e-09, No Iterations 16
GAMG:  Solving for p, Initial residual = 0.00236603, Final residual = 9.95686e-08, No Iterations 38
time step continuity errors : sum local = 1.61141e-11, global = -1.97646e-12, cumulative = -2.35003e-11
smoothSolver:  Solving for epsilon, Initial residual = 3.59999e-06, Final residual = 7.56877e-09, No Iterations 10
smoothSolver:  Solving for k, Initial residual = 9.18764e-05, Final residual = 9.14957e-09, No Iterations 16
ExecutionTime = 578.72 s  ClockTime = 579 s

Time = 83

smoothSolver:  Solving for Ux, Initial residual = 1.038e-05, Final residual = 5.88703e-09, No Iterations 13
smoothSolver:  Solving for Uy, Initial residual = 0.000113158, Final residual = 6.4431e-09, No Iterations 17
smoothSolver:  Solving for Uz, Initial residual = 5.83327e-05, Final residual = 6.02827e-09, No Iterations 16
GAMG:  Solving for p, Initial residual = 0.00234089, Final residual = 8.63214e-08, No Iterations 39
time step continuity errors : sum local = 1.7469e-11, global = 5.13922e-12, cumulative = -1.83611e-11
smoothSolver:  Solving for epsilon, Initial residual = 3.56215e-06, Final residual = 7.49904e-09, No Iterations 10
smoothSolver:  Solving for k, Initial residual = 9.15251e-05, Final residual = 9.10368e-09, No Iterations 16
ExecutionTime = 585.1 s  ClockTime = 586 s

Time = 84

smoothSolver:  Solving for Ux, Initial residual = 1.03446e-05, Final residual = 5.85683e-09, No Iterations 13
smoothSolver:  Solving for Uy, Initial residual = 0.000112177, Final residual = 6.38643e-09, No Iterations 17
smoothSolver:  Solving for Uz, Initial residual = 5.79998e-05, Final residual = 5.98785e-09, No Iterations 16
GAMG:  Solving for p, Initial residual = 0.00231911, Final residual = 9.76862e-08, No Iterations 38
time step continuity errors : sum local = 1.94724e-11, global = 5.52359e-12, cumulative = -1.28375e-11
smoothSolver:  Solving for epsilon, Initial residual = 3.52551e-06, Final residual = 7.43065e-09, No Iterations 10
smoothSolver:  Solving for k, Initial residual = 9.11755e-05, Final residual = 9.06036e-09, No Iterations 16
ExecutionTime = 591.41 s  ClockTime = 592 s

Time = 85

smoothSolver:  Solving for Ux, Initial residual = 1.031e-05, Final residual = 5.83015e-09, No Iterations 13
smoothSolver:  Solving for Uy, Initial residual = 0.000111233, Final residual = 6.33614e-09, No Iterations 17
smoothSolver:  Solving for Uz, Initial residual = 5.76751e-05, Final residual = 5.94665e-09, No Iterations 16
GAMG:  Solving for p, Initial residual = 0.00230139, Final residual = 9.42896e-08, No Iterations 38
time step continuity errors : sum local = 1.36777e-11, global = -3.9403e-13, cumulative = -1.32315e-11
smoothSolver:  Solving for epsilon, Initial residual = 3.48971e-06, Final residual = 7.3631e-09, No Iterations 10
smoothSolver:  Solving for k, Initial residual = 9.08266e-05, Final residual = 9.0119e-09, No Iterations 16
ExecutionTime = 597.72 s  ClockTime = 598 s

Time = 86

smoothSolver:  Solving for Ux, Initial residual = 1.02763e-05, Final residual = 5.80507e-09, No Iterations 13
smoothSolver:  Solving for Uy, Initial residual = 0.000110328, Final residual = 6.28744e-09, No Iterations 17
smoothSolver:  Solving for Uz, Initial residual = 5.73599e-05, Final residual = 5.9069e-09, No Iterations 16
GAMG:  Solving for p, Initial residual = 0.00228495, Final residual = 9.33807e-08, No Iterations 38
time step continuity errors : sum local = 1.63869e-11, global = 3.1874e-12, cumulative = -1.00441e-11
smoothSolver:  Solving for epsilon, Initial residual = 3.4548e-06, Final residual = 7.29722e-09, No Iterations 10
smoothSolver:  Solving for k, Initial residual = 9.04786e-05, Final residual = 8.96948e-09, No Iterations 16
ExecutionTime = 604.02 s  ClockTime = 605 s

Time = 87

smoothSolver:  Solving for Ux, Initial residual = 1.02431e-05, Final residual = 5.77511e-09, No Iterations 13
smoothSolver:  Solving for Uy, Initial residual = 0.000109459, Final residual = 6.23963e-09, No Iterations 17
smoothSolver:  Solving for Uz, Initial residual = 5.70547e-05, Final residual = 5.86277e-09, No Iterations 16
GAMG:  Solving for p, Initial residual = 0.00226958, Final residual = 9.2339e-08, No Iterations 38
time step continuity errors : sum local = 1.80856e-11, global = -5.02149e-12, cumulative = -1.50656e-11
smoothSolver:  Solving for epsilon, Initial residual = 3.42092e-06, Final residual = 7.23191e-09, No Iterations 10
smoothSolver:  Solving for k, Initial residual = 9.01317e-05, Final residual = 8.9203e-09, No Iterations 16
ExecutionTime = 610.32 s  ClockTime = 611 s

Time = 88

smoothSolver:  Solving for Ux, Initial residual = 1.02107e-05, Final residual = 5.74814e-09, No Iterations 13
smoothSolver:  Solving for Uy, Initial residual = 0.000108613, Final residual = 6.20088e-09, No Iterations 17
smoothSolver:  Solving for Uz, Initial residual = 5.67565e-05, Final residual = 5.82044e-09, No Iterations 16
GAMG:  Solving for p, Initial residual = 0.00225443, Final residual = 8.97577e-08, No Iterations 38
time step continuity errors : sum local = 2.66458e-11, global = 1.39707e-11, cumulative = -1.09484e-12
smoothSolver:  Solving for epsilon, Initial residual = 3.38772e-06, Final residual = 7.16752e-09, No Iterations 10
smoothSolver:  Solving for k, Initial residual = 8.97845e-05, Final residual = 8.87439e-09, No Iterations 16
ExecutionTime = 616.56 s  ClockTime = 617 s

Time = 89

smoothSolver:  Solving for Ux, Initial residual = 1.01787e-05, Final residual = 5.71543e-09, No Iterations 13
smoothSolver:  Solving for Uy, Initial residual = 0.000107787, Final residual = 6.1633e-09, No Iterations 17
smoothSolver:  Solving for Uz, Initial residual = 5.64656e-05, Final residual = 5.77717e-09, No Iterations 16
GAMG:  Solving for p, Initial residual = 0.00223928, Final residual = 8.7126e-08, No Iterations 38
time step continuity errors : sum local = 1.93645e-11, global = 7.00118e-12, cumulative = 5.90634e-12
smoothSolver:  Solving for epsilon, Initial residual = 3.3551e-06, Final residual = 7.10389e-09, No Iterations 10
smoothSolver:  Solving for k, Initial residual = 8.94368e-05, Final residual = 8.82482e-09, No Iterations 16
ExecutionTime = 622.81 s  ClockTime = 624 s

Time = 90

smoothSolver:  Solving for Ux, Initial residual = 1.01476e-05, Final residual = 5.68506e-09, No Iterations 13
smoothSolver:  Solving for Uy, Initial residual = 0.000106984, Final residual = 6.13356e-09, No Iterations 17
smoothSolver:  Solving for Uz, Initial residual = 5.61797e-05, Final residual = 5.73572e-09, No Iterations 16
GAMG:  Solving for p, Initial residual = 0.00222524, Final residual = 9.8982e-08, No Iterations 37
time step continuity errors : sum local = 1.43017e-11, global = -2.83381e-13, cumulative = 5.62296e-12
smoothSolver:  Solving for epsilon, Initial residual = 3.32308e-06, Final residual = 7.04064e-09, No Iterations 10
smoothSolver:  Solving for k, Initial residual = 8.90881e-05, Final residual = 8.7698e-09, No Iterations 16
ExecutionTime = 629.01 s  ClockTime = 630 s

Time = 91

smoothSolver:  Solving for Ux, Initial residual = 1.01171e-05, Final residual = 5.65242e-09, No Iterations 13
smoothSolver:  Solving for Uy, Initial residual = 0.000106217, Final residual = 6.10055e-09, No Iterations 17
smoothSolver:  Solving for Uz, Initial residual = 5.59002e-05, Final residual = 5.6932e-09, No Iterations 16
GAMG:  Solving for p, Initial residual = 0.00221201, Final residual = 9.85952e-08, No Iterations 37
time step continuity errors : sum local = 1.76559e-11, global = 3.81711e-12, cumulative = 9.44007e-12
smoothSolver:  Solving for epsilon, Initial residual = 3.29158e-06, Final residual = 6.97895e-09, No Iterations 10
smoothSolver:  Solving for k, Initial residual = 8.87389e-05, Final residual = 8.71766e-09, No Iterations 16
ExecutionTime = 635.25 s  ClockTime = 636 s

Time = 92

smoothSolver:  Solving for Ux, Initial residual = 1.00869e-05, Final residual = 9.95784e-09, No Iterations 12
smoothSolver:  Solving for Uy, Initial residual = 0.000105485, Final residual = 6.07172e-09, No Iterations 17
smoothSolver:  Solving for Uz, Initial residual = 5.56271e-05, Final residual = 9.97129e-09, No Iterations 15
GAMG:  Solving for p, Initial residual = 0.0021995, Final residual = 9.98542e-08, No Iterations 37
time step continuity errors : sum local = 1.43176e-11, global = 2.04838e-13, cumulative = 9.64491e-12
smoothSolver:  Solving for epsilon, Initial residual = 3.26104e-06, Final residual = 6.9171e-09, No Iterations 10
smoothSolver:  Solving for k, Initial residual = 8.83889e-05, Final residual = 8.66605e-09, No Iterations 16
ExecutionTime = 641.47 s  ClockTime = 642 s

Time = 93

smoothSolver:  Solving for Ux, Initial residual = 1.0057e-05, Final residual = 9.9117e-09, No Iterations 12
smoothSolver:  Solving for Uy, Initial residual = 0.000104773, Final residual = 6.04657e-09, No Iterations 17
smoothSolver:  Solving for Uz, Initial residual = 5.53582e-05, Final residual = 9.90622e-09, No Iterations 15
GAMG:  Solving for p, Initial residual = 0.00218706, Final residual = 9.39042e-08, No Iterations 37
time step continuity errors : sum local = 1.46624e-11, global = 1.35754e-12, cumulative = 1.10025e-11
smoothSolver:  Solving for epsilon, Initial residual = 3.23109e-06, Final residual = 6.85684e-09, No Iterations 10
smoothSolver:  Solving for k, Initial residual = 8.80373e-05, Final residual = 8.61038e-09, No Iterations 16
ExecutionTime = 647.65 s  ClockTime = 648 s

Time = 94

smoothSolver:  Solving for Ux, Initial residual = 1.00273e-05, Final residual = 9.85807e-09, No Iterations 12
smoothSolver:  Solving for Uy, Initial residual = 0.000104088, Final residual = 6.02223e-09, No Iterations 17
smoothSolver:  Solving for Uz, Initial residual = 5.50944e-05, Final residual = 9.83768e-09, No Iterations 15
GAMG:  Solving for p, Initial residual = 0.00217626, Final residual = 9.298e-08, No Iterations 37
time step continuity errors : sum local = 2.43374e-11, global = 1.12592e-11, cumulative = 2.22616e-11
smoothSolver:  Solving for epsilon, Initial residual = 3.20161e-06, Final residual = 6.79727e-09, No Iterations 10
smoothSolver:  Solving for k, Initial residual = 8.76843e-05, Final residual = 8.56083e-09, No Iterations 16
ExecutionTime = 653.81 s  ClockTime = 655 s

Time = 95

smoothSolver:  Solving for Ux, Initial residual = 9.99787e-06, Final residual = 9.81274e-09, No Iterations 12
smoothSolver:  Solving for Uy, Initial residual = 0.000103436, Final residual = 5.99546e-09, No Iterations 17
smoothSolver:  Solving for Uz, Initial residual = 5.48373e-05, Final residual = 9.77344e-09, No Iterations 15
GAMG:  Solving for p, Initial residual = 0.00216468, Final residual = 9.04987e-08, No Iterations 37
time step continuity errors : sum local = 1.38099e-11, global = 1.00533e-12, cumulative = 2.3267e-11
smoothSolver:  Solving for epsilon, Initial residual = 3.17278e-06, Final residual = 6.73822e-09, No Iterations 10
smoothSolver:  Solving for k, Initial residual = 8.73299e-05, Final residual = 8.50751e-09, No Iterations 16
ExecutionTime = 659.94 s  ClockTime = 661 s

Time = 96

smoothSolver:  Solving for Ux, Initial residual = 9.96904e-06, Final residual = 9.77516e-09, No Iterations 12
smoothSolver:  Solving for Uy, Initial residual = 0.000102814, Final residual = 5.97357e-09, No Iterations 17
[...]
GAMG:  Solving for p, Initial residual = 1.69205e-05, Final residual = 8.35988e-08, No Iterations 11
time step continuity errors : sum local = 2.56749e-11, global = 1.34358e-11, cumulative = 5.92844e-10
smoothSolver:  Solving for epsilon, Initial residual = 1.00841e-08, Final residual = 5.23121e-09, No Iterations 1
smoothSolver:  Solving for k, Initial residual = 2.19429e-08, Final residual = 6.46788e-09, No Iterations 2
ExecutionTime = 6479.12 s  ClockTime = 6484 s

Time = 1477

smoothSolver:  Solving for Ux, Initial residual = 1.22401e-08, Final residual = 6.90764e-09, No Iterations 1
smoothSolver:  Solving for Uy, Initial residual = 6.33242e-08, Final residual = 5.93319e-09, No Iterations 4
smoothSolver:  Solving for Uz, Initial residual = 5.78596e-08, Final residual = 9.8154e-09, No Iterations 3
GAMG:  Solving for p, Initial residual = 1.81439e-05, Final residual = 9.18367e-08, No Iterations 11
time step continuity errors : sum local = 2.48429e-11, global = 1.13145e-11, cumulative = 6.04159e-10
smoothSolver:  Solving for epsilon, Initial residual = 9.62595e-09, Final residual = 9.62595e-09, No Iterations 0
smoothSolver:  Solving for k, Initial residual = 2.19612e-08, Final residual = 6.44802e-09, No Iterations 2
ExecutionTime = 6482.35 s  ClockTime = 6487 s

Time = 1478

smoothSolver:  Solving for Ux, Initial residual = 1.11238e-08, Final residual = 6.27238e-09, No Iterations 1
smoothSolver:  Solving for Uy, Initial residual = 5.36939e-08, Final residual = 9.07348e-09, No Iterations 3
smoothSolver:  Solving for Uz, Initial residual = 6.20149e-08, Final residual = 5.84131e-09, No Iterations 4
GAMG:  Solving for p, Initial residual = 1.96562e-05, Final residual = 8.08152e-08, No Iterations 13
time step continuity errors : sum local = 3.40292e-11, global = 2.22364e-11, cumulative = 6.26395e-10
smoothSolver:  Solving for epsilon, Initial residual = 9.83955e-09, Final residual = 9.83955e-09, No Iterations 0
smoothSolver:  Solving for k, Initial residual = 2.23464e-08, Final residual = 6.66507e-09, No Iterations 2
ExecutionTime = 6485.69 s  ClockTime = 6490 s

Time = 1479

smoothSolver:  Solving for Ux, Initial residual = 8.45194e-09, Final residual = 8.45194e-09, No Iterations 0
smoothSolver:  Solving for Uy, Initial residual = 5.36818e-08, Final residual = 9.03861e-09, No Iterations 3
smoothSolver:  Solving for Uz, Initial residual = 7.01716e-08, Final residual = 6.56882e-09, No Iterations 4
GAMG:  Solving for p, Initial residual = 1.63592e-05, Final residual = 9.63822e-08, No Iterations 10
time step continuity errors : sum local = 2.84008e-11, global = 1.4527e-11, cumulative = 6.40922e-10
smoothSolver:  Solving for epsilon, Initial residual = 1.00613e-08, Final residual = 5.22047e-09, No Iterations 1
smoothSolver:  Solving for k, Initial residual = 2.16357e-08, Final residual = 6.48361e-09, No Iterations 2
ExecutionTime = 6488.83 s  ClockTime = 6493 s

Time = 1480

smoothSolver:  Solving for Ux, Initial residual = 6.93661e-09, Final residual = 6.93661e-09, No Iterations 0
smoothSolver:  Solving for Uy, Initial residual = 4.77501e-08, Final residual = 8.02862e-09, No Iterations 3
smoothSolver:  Solving for Uz, Initial residual = 5.99921e-08, Final residual = 5.5101e-09, No Iterations 4
GAMG:  Solving for p, Initial residual = 1.89011e-05, Final residual = 8.87339e-08, No Iterations 12
time step continuity errors : sum local = 2.11902e-11, global = 8.26923e-12, cumulative = 6.49192e-10
smoothSolver:  Solving for epsilon, Initial residual = 9.60009e-09, Final residual = 9.60009e-09, No Iterations 0
smoothSolver:  Solving for k, Initial residual = 2.16178e-08, Final residual = 6.42103e-09, No Iterations 2
ExecutionTime = 6492.09 s  ClockTime = 6497 s

Time = 1481

smoothSolver:  Solving for Ux, Initial residual = 9.22678e-09, Final residual = 9.22678e-09, No Iterations 0
smoothSolver:  Solving for Uy, Initial residual = 5.46229e-08, Final residual = 9.28239e-09, No Iterations 3
smoothSolver:  Solving for Uz, Initial residual = 5.23719e-08, Final residual = 8.79766e-09, No Iterations 3
GAMG:  Solving for p, Initial residual = 1.74023e-05, Final residual = 9.28084e-08, No Iterations 12
time step continuity errors : sum local = 1.38873e-11, global = -6.60616e-13, cumulative = 6.48531e-10
smoothSolver:  Solving for epsilon, Initial residual = 9.7959e-09, Final residual = 9.7959e-09, No Iterations 0
smoothSolver:  Solving for k, Initial residual = 2.19152e-08, Final residual = 6.44829e-09, No Iterations 2
ExecutionTime = 6495.33 s  ClockTime = 6500 s

Time = 1482

smoothSolver:  Solving for Ux, Initial residual = 1.20926e-08, Final residual = 6.83293e-09, No Iterations 1
smoothSolver:  Solving for Uy, Initial residual = 6.49104e-08, Final residual = 6.09639e-09, No Iterations 4
smoothSolver:  Solving for Uz, Initial residual = 5.29023e-08, Final residual = 9.01564e-09, No Iterations 3
GAMG:  Solving for p, Initial residual = 1.71035e-05, Final residual = 8.81893e-08, No Iterations 10
time step continuity errors : sum local = 1.91222e-11, global = 6.35834e-12, cumulative = 6.54889e-10
smoothSolver:  Solving for epsilon, Initial residual = 1.00264e-08, Final residual = 5.21486e-09, No Iterations 1
smoothSolver:  Solving for k, Initial residual = 2.12568e-08, Final residual = 6.40232e-09, No Iterations 2
ExecutionTime = 6498.48 s  ClockTime = 6503 s

Time = 1483

smoothSolver:  Solving for Ux, Initial residual = 1.28684e-08, Final residual = 7.3275e-09, No Iterations 1
smoothSolver:  Solving for Uy, Initial residual = 7.60294e-08, Final residual = 7.14519e-09, No Iterations 4
smoothSolver:  Solving for Uz, Initial residual = 5.76235e-08, Final residual = 9.86017e-09, No Iterations 3
GAMG:  Solving for p, Initial residual = 1.78149e-05, Final residual = 9.36599e-08, No Iterations 12
time step continuity errors : sum local = 2.76807e-11, global = 1.41799e-11, cumulative = 6.69069e-10
smoothSolver:  Solving for epsilon, Initial residual = 9.59256e-09, Final residual = 9.59256e-09, No Iterations 0
smoothSolver:  Solving for k, Initial residual = 2.14116e-08, Final residual = 6.41273e-09, No Iterations 2
ExecutionTime = 6501.77 s  ClockTime = 6506 s

Time = 1484

smoothSolver:  Solving for Ux, Initial residual = 1.12369e-08, Final residual = 6.42993e-09, No Iterations 1
smoothSolver:  Solving for Uy, Initial residual = 8.07383e-08, Final residual = 7.56573e-09, No Iterations 4
smoothSolver:  Solving for Uz, Initial residual = 6.60245e-08, Final residual = 6.2257e-09, No Iterations 4
GAMG:  Solving for p, Initial residual = 1.58891e-05, Final residual = 9.53182e-08, No Iterations 11
time step continuity errors : sum local = 1.66627e-11, global = -2.69611e-12, cumulative = 6.66373e-10
smoothSolver:  Solving for epsilon, Initial residual = 9.81078e-09, Final residual = 9.81078e-09, No Iterations 0
smoothSolver:  Solving for k, Initial residual = 2.18131e-08, Final residual = 6.43593e-09, No Iterations 2
ExecutionTime = 6504.98 s  ClockTime = 6509 s

Time = 1485

smoothSolver:  Solving for Ux, Initial residual = 8.64673e-09, Final residual = 8.64673e-09, No Iterations 0
smoothSolver:  Solving for Uy, Initial residual = 5.91809e-08, Final residual = 9.90248e-09, No Iterations 3
smoothSolver:  Solving for Uz, Initial residual = 6.59724e-08, Final residual = 6.08801e-09, No Iterations 4
GAMG:  Solving for p, Initial residual = 1.79549e-05, Final residual = 8.77018e-08, No Iterations 11
time step continuity errors : sum local = 1.75094e-11, global = 4.98335e-12, cumulative = 6.71356e-10
smoothSolver:  Solving for epsilon, Initial residual = 1.00423e-08, Final residual = 5.21825e-09, No Iterations 1
smoothSolver:  Solving for k, Initial residual = 2.09559e-08, Final residual = 6.2687e-09, No Iterations 2
ExecutionTime = 6508.19 s  ClockTime = 6513 s

Time = 1486

smoothSolver:  Solving for Ux, Initial residual = 6.89565e-09, Final residual = 6.89565e-09, No Iterations 0
smoothSolver:  Solving for Uy, Initial residual = 5.18603e-08, Final residual = 8.8309e-09, No Iterations 3
smoothSolver:  Solving for Uz, Initial residual = 6.10945e-08, Final residual = 5.65731e-09, No Iterations 4
GAMG:  Solving for p, Initial residual = 1.88555e-05, Final residual = 7.85646e-08, No Iterations 12
time step continuity errors : sum local = 1.6301e-11, global = 5.00859e-12, cumulative = 6.76365e-10
smoothSolver:  Solving for epsilon, Initial residual = 9.57744e-09, Final residual = 9.57744e-09, No Iterations 0
smoothSolver:  Solving for k, Initial residual = 2.09495e-08, Final residual = 6.28847e-09, No Iterations 2
ExecutionTime = 6511.45 s  ClockTime = 6516 s

Time = 1487

smoothSolver:  Solving for Ux, Initial residual = 9.14957e-09, Final residual = 9.14957e-09, No Iterations 0
smoothSolver:  Solving for Uy, Initial residual = 6.55652e-08, Final residual = 6.32744e-09, No Iterations 4
smoothSolver:  Solving for Uz, Initial residual = 5.96442e-08, Final residual = 5.5878e-09, No Iterations 4
GAMG:  Solving for p, Initial residual = 1.72675e-05, Final residual = 8.94992e-08, No Iterations 10
time step continuity errors : sum local = 1.60156e-11, global = 3.30758e-12, cumulative = 6.79673e-10
smoothSolver:  Solving for epsilon, Initial residual = 9.76662e-09, Final residual = 9.76662e-09, No Iterations 0
smoothSolver:  Solving for k, Initial residual = 2.13115e-08, Final residual = 6.39539e-09, No Iterations 2
ExecutionTime = 6514.58 s  ClockTime = 6519 s

Time = 1488

smoothSolver:  Solving for Ux, Initial residual = 1.15215e-08, Final residual = 6.52174e-09, No Iterations 1
smoothSolver:  Solving for Uy, Initial residual = 6.2087e-08, Final residual = 5.91834e-09, No Iterations 4
smoothSolver:  Solving for Uz, Initial residual = 5.68772e-08, Final residual = 9.671e-09, No Iterations 3
GAMG:  Solving for p, Initial residual = 1.81898e-05, Final residual = 9.66615e-08, No Iterations 11
time step continuity errors : sum local = 2.13969e-11, global = -7.35143e-12, cumulative = 6.72321e-10
smoothSolver:  Solving for epsilon, Initial residual = 9.99399e-09, Final residual = 9.99399e-09, No Iterations 0
smoothSolver:  Solving for k, Initial residual = 2.18212e-08, Final residual = 6.4474e-09, No Iterations 2
ExecutionTime = 6517.78 s  ClockTime = 6522 s

Time = 1489

smoothSolver:  Solving for Ux, Initial residual = 1.05482e-08, Final residual = 6.02691e-09, No Iterations 1
smoothSolver:  Solving for Uy, Initial residual = 5.19637e-08, Final residual = 8.82351e-09, No Iterations 3
smoothSolver:  Solving for Uz, Initial residual = 6.01455e-08, Final residual = 5.69693e-09, No Iterations 4
GAMG:  Solving for p, Initial residual = 1.90039e-05, Final residual = 8.43323e-08, No Iterations 12
time step continuity errors : sum local = 1.64642e-11, global = 4.27962e-12, cumulative = 6.76601e-10
smoothSolver:  Solving for epsilon, Initial residual = 1.02485e-08, Final residual = 5.29806e-09, No Iterations 1
smoothSolver:  Solving for k, Initial residual = 2.10586e-08, Final residual = 6.25599e-09, No Iterations 2
ExecutionTime = 6521.08 s  ClockTime = 6526 s

Time = 1490

smoothSolver:  Solving for Ux, Initial residual = 8.11891e-09, Final residual = 8.11891e-09, No Iterations 0
smoothSolver:  Solving for Uy, Initial residual = 5.10426e-08, Final residual = 8.61592e-09, No Iterations 3
smoothSolver:  Solving for Uz, Initial residual = 6.76723e-08, Final residual = 6.35228e-09, No Iterations 4
GAMG:  Solving for p, Initial residual = 1.52471e-05, Final residual = 8.82445e-08, No Iterations 11
time step continuity errors : sum local = 1.33754e-11, global = -7.06968e-13, cumulative = 6.75894e-10
smoothSolver:  Solving for epsilon, Initial residual = 9.73944e-09, Final residual = 9.73944e-09, No Iterations 0
smoothSolver:  Solving for k, Initial residual = 2.09626e-08, Final residual = 6.2789e-09, No Iterations 2
ExecutionTime = 6524.26 s  ClockTime = 6529 s

Time = 1491

smoothSolver:  Solving for Ux, Initial residual = 6.69111e-09, Final residual = 6.69111e-09, No Iterations 0
smoothSolver:  Solving for Uy, Initial residual = 4.50307e-08, Final residual = 7.56404e-09, No Iterations 3
smoothSolver:  Solving for Uz, Initial residual = 5.73607e-08, Final residual = 9.55808e-09, No Iterations 3
GAMG:  Solving for p, Initial residual = 1.76598e-05, Final residual = 8.67354e-08, No Iterations 12
time step continuity errors : sum local = 1.31522e-11, global = -7.21254e-13, cumulative = 6.75173e-10
smoothSolver:  Solving for epsilon, Initial residual = 9.94474e-09, Final residual = 9.94474e-09, No Iterations 0
smoothSolver:  Solving for k, Initial residual = 2.13163e-08, Final residual = 6.40824e-09, No Iterations 2
ExecutionTime = 6527.51 s  ClockTime = 6532 s

Time = 1492

smoothSolver:  Solving for Ux, Initial residual = 8.4144e-09, Final residual = 8.4144e-09, No Iterations 0
smoothSolver:  Solving for Uy, Initial residual = 4.8682e-08, Final residual = 8.28625e-09, No Iterations 3
smoothSolver:  Solving for Uz, Initial residual = 5.16094e-08, Final residual = 8.68419e-09, No Iterations 3
GAMG:  Solving for p, Initial residual = 1.70277e-05, Final residual = 9.66617e-08, No Iterations 11
time step continuity errors : sum local = 2.09754e-11, global = -6.78359e-12, cumulative = 6.68389e-10
smoothSolver:  Solving for epsilon, Initial residual = 1.01604e-08, Final residual = 5.27137e-09, No Iterations 1
smoothSolver:  Solving for k, Initial residual = 2.05988e-08, Final residual = 6.06174e-09, No Iterations 2
ExecutionTime = 6530.71 s  ClockTime = 6535 s

Time = 1493

smoothSolver:  Solving for Ux, Initial residual = 1.09437e-08, Final residual = 6.24005e-09, No Iterations 1
smoothSolver:  Solving for Uy, Initial residual = 5.40842e-08, Final residual = 9.20095e-09, No Iterations 3
smoothSolver:  Solving for Uz, Initial residual = 5.23077e-08, Final residual = 8.93002e-09, No Iterations 3
GAMG:  Solving for p, Initial residual = 1.68097e-05, Final residual = 9.92234e-08, No Iterations 10
time step continuity errors : sum local = 2.85709e-11, global = -1.39894e-11, cumulative = 6.544e-10
smoothSolver:  Solving for epsilon, Initial residual = 9.67665e-09, Final residual = 9.67665e-09, No Iterations 0
smoothSolver:  Solving for k, Initial residual = 2.06035e-08, Final residual = 6.04704e-09, No Iterations 2
ExecutionTime = 6533.83 s  ClockTime = 6538 s

Time = 1494

smoothSolver:  Solving for Ux, Initial residual = 1.1846e-08, Final residual = 6.75565e-09, No Iterations 1
smoothSolver:  Solving for Uy, Initial residual = 5.86486e-08, Final residual = 9.93877e-09, No Iterations 3
smoothSolver:  Solving for Uz, Initial residual = 5.58004e-08, Final residual = 9.57722e-09, No Iterations 3
GAMG:  Solving for p, Initial residual = 1.84278e-05, Final residual = 9.76504e-08, No Iterations 12
time step continuity errors : sum local = 2.07549e-11, global = 6.38531e-12, cumulative = 6.60785e-10
smoothSolver:  Solving for epsilon, Initial residual = 9.87999e-09, Final residual = 9.87999e-09, No Iterations 0
smoothSolver:  Solving for k, Initial residual = 2.10057e-08, Final residual = 6.24021e-09, No Iterations 2
ExecutionTime = 6537.09 s  ClockTime = 6542 s

Time = 1495

smoothSolver:  Solving for Ux, Initial residual = 1.01319e-08, Final residual = 5.80776e-09, No Iterations 1
smoothSolver:  Solving for Uy, Initial residual = 6.08971e-08, Final residual = 5.72756e-09, No Iterations 4
smoothSolver:  Solving for Uz, Initial residual = 5.98842e-08, Final residual = 5.66444e-09, No Iterations 4
GAMG:  Solving for p, Initial residual = 1.61243e-05, Final residual = 8.22818e-08, No Iterations 12
time step continuity errors : sum local = 1.79171e-11, global = -5.9404e-12, cumulative = 6.54844e-10
smoothSolver:  Solving for epsilon, Initial residual = 1.01099e-08, Final residual = 5.25466e-09, No Iterations 1
smoothSolver:  Solving for k, Initial residual = 2.03365e-08, Final residual = 6.10923e-09, No Iterations 2
ExecutionTime = 6540.4 s  ClockTime = 6545 s

Time = 1496

smoothSolver:  Solving for Ux, Initial residual = 7.70096e-09, Final residual = 7.70096e-09, No Iterations 0
smoothSolver:  Solving for Uy, Initial residual = 4.87533e-08, Final residual = 8.21081e-09, No Iterations 3
smoothSolver:  Solving for Uz, Initial residual = 6.0018e-08, Final residual = 5.5402e-09, No Iterations 4
GAMG:  Solving for p, Initial residual = 1.70696e-05, Final residual = 8.85977e-08, No Iterations 11
time step continuity errors : sum local = 1.28576e-11, global = 1.43833e-13, cumulative = 6.54988e-10
smoothSolver:  Solving for epsilon, Initial residual = 9.64306e-09, Final residual = 9.64306e-09, No Iterations 0
smoothSolver:  Solving for k, Initial residual = 2.03006e-08, Final residual = 6.07601e-09, No Iterations 2
ExecutionTime = 6543.58 s  ClockTime = 6548 s

Time = 1497

smoothSolver:  Solving for Ux, Initial residual = 6.8444e-09, Final residual = 6.8444e-09, No Iterations 0
smoothSolver:  Solving for Uy, Initial residual = 5.0296e-08, Final residual = 8.64511e-09, No Iterations 3
smoothSolver:  Solving for Uz, Initial residual = 5.81617e-08, Final residual = 9.77656e-09, No Iterations 3
GAMG:  Solving for p, Initial residual = 1.75765e-05, Final residual = 9.1073e-08, No Iterations 11
time step continuity errors : sum local = 1.46081e-11, global = 1.35653e-12, cumulative = 6.56345e-10
smoothSolver:  Solving for epsilon, Initial residual = 9.83467e-09, Final residual = 9.83467e-09, No Iterations 0
smoothSolver:  Solving for k, Initial residual = 2.06116e-08, Final residual = 6.09723e-09, No Iterations 2
ExecutionTime = 6546.75 s  ClockTime = 6551 s

Time = 1498

smoothSolver:  Solving for Ux, Initial residual = 9.21422e-09, Final residual = 9.21422e-09, No Iterations 0
smoothSolver:  Solving for Uy, Initial residual = 6.24171e-08, Final residual = 5.99354e-09, No Iterations 4
smoothSolver:  Solving for Uz, Initial residual = 5.70411e-08, Final residual = 9.65163e-09, No Iterations 3
GAMG:  Solving for p, Initial residual = 1.59439e-05, Final residual = 8.15527e-08, No Iterations 10
time step continuity errors : sum local = 1.29386e-11, global = 8.94763e-13, cumulative = 6.5724e-10
smoothSolver:  Solving for epsilon, Initial residual = 1.00359e-08, Final residual = 5.20798e-09, No Iterations 1
smoothSolver:  Solving for k, Initial residual = 1.98398e-08, Final residual = 5.97545e-09, No Iterations 2
ExecutionTime = 6549.88 s  ClockTime = 6554 s

Time = 1499

smoothSolver:  Solving for Ux, Initial residual = 1.13722e-08, Final residual = 6.47937e-09, No Iterations 1
smoothSolver:  Solving for Uy, Initial residual = 5.59336e-08, Final residual = 9.53825e-09, No Iterations 3
smoothSolver:  Solving for Uz, Initial residual = 5.49969e-08, Final residual = 9.33628e-09, No Iterations 3
GAMG:  Solving for p, Initial residual = 1.71892e-05, Final residual = 8.83018e-08, No Iterations 11
time step continuity errors : sum local = 2.28772e-11, global = 9.93229e-12, cumulative = 6.67172e-10
smoothSolver:  Solving for epsilon, Initial residual = 9.56695e-09, Final residual = 9.56695e-09, No Iterations 0
smoothSolver:  Solving for k, Initial residual = 1.99925e-08, Final residual = 6.01429e-09, No Iterations 2
ExecutionTime = 6553.08 s  ClockTime = 6558 s

Time = 1500

smoothSolver:  Solving for Ux, Initial residual = 1.04562e-08, Final residual = 5.94744e-09, No Iterations 1
smoothSolver:  Solving for Uy, Initial residual = 4.90427e-08, Final residual = 8.30849e-09, No Iterations 3
smoothSolver:  Solving for Uz, Initial residual = 5.78101e-08, Final residual = 9.84078e-09, No Iterations 3
GAMG:  Solving for p, Initial residual = 1.88507e-05, Final residual = 8.63519e-08, No Iterations 12
time step continuity errors : sum local = 1.5579e-11, global = 3.07307e-12, cumulative = 6.70245e-10
smoothSolver:  Solving for epsilon, Initial residual = 9.75946e-09, Final residual = 9.75946e-09, No Iterations 0
smoothSolver:  Solving for k, Initial residual = 2.03842e-08, Final residual = 6.12835e-09, No Iterations 2
ExecutionTime = 6558.14 s  ClockTime = 6563 s

End

Finalising parallel run
