/*---------------------------------------------------------------------------*\
| =========                 |                                                 |
| \\      /  F ield         | foam-extend: Open Source CFD                    |
|  \\    /   O peration     | Version:     4.1                                |
|   \\  /    A nd           | Web:         http://www.foam-extend.org         |
|    \\/     M anipulation  | For copyright notice see file Copyright         |
\*---------------------------------------------------------------------------*/
Build  : 4.1-11cb6dafc53a
Exec   : simpleFoam -parallel
Date   : Jul 21 2022
Time   : 15:28:14
Host   : "mihaelcindori-Legion-Y540-15IRH-PG0"
PID    : 24772
CtrlDict : "/home/mihaelcindori/Documents/OpenFoam/pedestrianWindComfort_kOmegaSST_cfMesh_symmetryBC_fe41/system/controlDict"
Case   : /home/mihaelcindori/Documents/OpenFoam/pedestrianWindComfort_kOmegaSST_cfMesh_symmetryBC_fe41
nProcs : 4
Slaves : 
3
(
"mihaelcindori-Legion-Y540-15IRH-PG0.24773"
"mihaelcindori-Legion-Y540-15IRH-PG0.24774"
"mihaelcindori-Legion-Y540-15IRH-PG0.24775"
)

Pstream initialized with:
    nProcsSimpleSum    : 0
    commsType          : nonBlocking
    polling iterations : 0
sigFpe : Enabling floating point exception trapping (FOAM_SIGFPE).
allowSystemOperations : Disallowing user-supplied system call operations

// * * * * * * * * * * * * * * * * * * * * * * * * * * * * * * * * * * * * * //
Create time

--> FOAM Warning : 
    From function IOstream::formatEnum(const word&)
    in file db/IOstreams/IOstreams/IOstream.C at line 51
    bad format specifier 'ASCII', using 'ascii'
Create mesh for time = 0


SIMPLE: no convergence criteria found. Calculations will run for 5000 steps.

Reading field p

Reading field U

Reading/calculating face flux field phi

Selecting incompressible transport model Newtonian
Selecting RAS turbulence model kOmegaSST
kOmegaSSTCoeffs
{
    alphaK1         0.85;
    alphaK2         1;
    alphaOmega1     0.5;
    alphaOmega2     0.856;
    gamma1          0.555556;
    gamma2          0.44;
    beta1           0.075;
    beta2           0.0828;
    betaStar        0.09;
    a1              0.31;
    b1              1;
    c1              10;
    F3              false;
}


Starting time loop

Time = 1

smoothSolver:  Solving for Ux, Initial residual = 1, Final residual = 8.66436e-09, No Iterations 23
smoothSolver:  Solving for Uy, Initial residual = 1, Final residual = 5.73421e-09, No Iterations 28
smoothSolver:  Solving for Uz, Initial residual = 1, Final residual = 8.12416e-09, No Iterations 25
DICPCG:  Solving for p, Initial residual = 1, Final residual = 0.000962807, No Iterations 207
DICPCG:  Solving for p, Initial residual = 0.0849302, Final residual = 8.24622e-05, No Iterations 311
DICPCG:  Solving for p, Initial residual = 0.00376623, Final residual = 3.62829e-06, No Iterations 319
time step continuity errors : sum local = 2.3817e-07, global = 4.00124e-17, cumulative = 4.00124e-17
smoothSolver:  Solving for omega, Initial residual = 0.120746, Final residual = 8.48721e-09, No Iterations 23
smoothSolver:  Solving for k, Initial residual = 1, Final residual = 6.54355e-09, No Iterations 34
ExecutionTime = 26.01 s  ClockTime = 26 s

Time = 2

smoothSolver:  Solving for Ux, Initial residual = 0.404338, Final residual = 6.45169e-09, No Iterations 34
smoothSolver:  Solving for Uy, Initial residual = 0.207786, Final residual = 9.88726e-09, No Iterations 32
smoothSolver:  Solving for Uz, Initial residual = 0.392026, Final residual = 6.23681e-09, No Iterations 33
DICPCG:  Solving for p, Initial residual = 0.944504, Final residual = 0.000860357, No Iterations 367
DICPCG:  Solving for p, Initial residual = 0.0605352, Final residual = 5.81237e-05, No Iterations 99
DICPCG:  Solving for p, Initial residual = 0.00402397, Final residual = 3.88335e-06, No Iterations 143
time step continuity errors : sum local = 2.06428e-07, global = -4.25387e-17, cumulative = -2.52628e-18
smoothSolver:  Solving for omega, Initial residual = 0.0133888, Final residual = 8.48165e-09, No Iterations 23
smoothSolver:  Solving for k, Initial residual = 0.739282, Final residual = 9.28604e-09, No Iterations 33
ExecutionTime = 44.59 s  ClockTime = 45 s

Time = 3

smoothSolver:  Solving for Ux, Initial residual = 0.253862, Final residual = 8.23382e-09, No Iterations 33
smoothSolver:  Solving for Uy, Initial residual = 0.163858, Final residual = 9.47059e-09, No Iterations 31
smoothSolver:  Solving for Uz, Initial residual = 0.347227, Final residual = 6.07991e-09, No Iterations 33
DICPCG:  Solving for p, Initial residual = 0.740485, Final residual = 0.000729687, No Iterations 378
DICPCG:  Solving for p, Initial residual = 0.0302642, Final residual = 2.85041e-05, No Iterations 159
DICPCG:  Solving for p, Initial residual = 0.00117635, Final residual = 1.12028e-06, No Iterations 328
time step continuity errors : sum local = 6.00437e-08, global = -3.44825e-18, cumulative = -5.97453e-18
smoothSolver:  Solving for omega, Initial residual = 0.0139849, Final residual = 7.27247e-09, No Iterations 23
smoothSolver:  Solving for k, Initial residual = 0.181331, Final residual = 6.08207e-09, No Iterations 32
ExecutionTime = 68.81 s  ClockTime = 69 s

Time = 4

smoothSolver:  Solving for Ux, Initial residual = 0.0937607, Final residual = 9.89626e-09, No Iterations 30
smoothSolver:  Solving for Uy, Initial residual = 0.0587029, Final residual = 6.02965e-09, No Iterations 30
smoothSolver:  Solving for Uz, Initial residual = 0.17572, Final residual = 6.49365e-09, No Iterations 32
DICPCG:  Solving for p, Initial residual = 0.536018, Final residual = 0.000532685, No Iterations 387
DICPCG:  Solving for p, Initial residual = 0.0483603, Final residual = 4.67216e-05, No Iterations 142
DICPCG:  Solving for p, Initial residual = 0.00257479, Final residual = 2.53233e-06, No Iterations 156
time step continuity errors : sum local = 1.06299e-07, global = 3.56715e-17, cumulative = 2.9697e-17
smoothSolver:  Solving for omega, Initial residual = 0.00525659, Final residual = 7.14271e-09, No Iterations 23
smoothSolver:  Solving for k, Initial residual = 0.096034, Final residual = 8.53511e-09, No Iterations 30
bounding k, min: -0.714787 max: 13.9433 average: 1.31807
ExecutionTime = 88.8 s  ClockTime = 89 s

Time = 5

smoothSolver:  Solving for Ux, Initial residual = 0.22618, Final residual = 7.90028e-09, No Iterations 33
smoothSolver:  Solving for Uy, Initial residual = 0.0888811, Final residual = 7.49753e-09, No Iterations 31
smoothSolver:  Solving for Uz, Initial residual = 0.0871302, Final residual = 9.74416e-09, No Iterations 30
DICPCG:  Solving for p, Initial residual = 0.736683, Final residual = 0.000711001, No Iterations 356
DICPCG:  Solving for p, Initial residual = 0.0502995, Final residual = 5.00266e-05, No Iterations 103
DICPCG:  Solving for p, Initial residual = 0.00330883, Final residual = 3.13354e-06, No Iterations 141
time step continuity errors : sum local = 7.3859e-08, global = 6.54162e-17, cumulative = 9.51132e-17
smoothSolver:  Solving for omega, Initial residual = 0.0038298, Final residual = 8.96427e-09, No Iterations 23
smoothSolver:  Solving for k, Initial residual = 0.139092, Final residual = 9.21305e-09, No Iterations 30
bounding k, min: -0.641811 max: 9.69676 average: 1.32158
ExecutionTime = 107.44 s  ClockTime = 107 s

Time = 6

smoothSolver:  Solving for Ux, Initial residual = 0.16017, Final residual = 7.22692e-09, No Iterations 32
smoothSolver:  Solving for Uy, Initial residual = 0.112588, Final residual = 7.78364e-09, No Iterations 30
smoothSolver:  Solving for Uz, Initial residual = 0.0967607, Final residual = 9.3372e-09, No Iterations 30
DICPCG:  Solving for p, Initial residual = 0.777377, Final residual = 0.000755608, No Iterations 359
DICPCG:  Solving for p, Initial residual = 0.0332373, Final residual = 3.18041e-05, No Iterations 150
DICPCG:  Solving for p, Initial residual = 0.00139158, Final residual = 1.38198e-06, No Iterations 162
time step continuity errors : sum local = 4.83818e-08, global = 7.00338e-18, cumulative = 1.02117e-16
smoothSolver:  Solving for omega, Initial residual = 0.00343489, Final residual = 8.15086e-09, No Iterations 23
smoothSolver:  Solving for k, Initial residual = 0.101032, Final residual = 7.15487e-09, No Iterations 30
bounding k, min: -0.231819 max: 12.9292 average: 1.33669
ExecutionTime = 127.57 s  ClockTime = 128 s

Time = 7

smoothSolver:  Solving for Ux, Initial residual = 0.0985267, Final residual = 7.46045e-09, No Iterations 31
smoothSolver:  Solving for Uy, Initial residual = 0.0594572, Final residual = 8.27864e-09, No Iterations 28
smoothSolver:  Solving for Uz, Initial residual = 0.0967035, Final residual = 8.22227e-09, No Iterations 30
DICPCG:  Solving for p, Initial residual = 0.637226, Final residual = 0.000588389, No Iterations 358
DICPCG:  Solving for p, Initial residual = 0.0263875, Final residual = 2.58123e-05, No Iterations 137
DICPCG:  Solving for p, Initial residual = 0.00117172, Final residual = 1.17167e-06, No Iterations 157
time step continuity errors : sum local = 2.50076e-08, global = 9.92527e-17, cumulative = 2.01369e-16
smoothSolver:  Solving for omega, Initial residual = 0.00269744, Final residual = 8.73445e-09, No Iterations 22
smoothSolver:  Solving for k, Initial residual = 0.0676705, Final residual = 6.95317e-09, No Iterations 29
bounding k, min: -0.34637 max: 13.729 average: 1.36362
ExecutionTime = 146.78 s  ClockTime = 147 s

Time = 8

smoothSolver:  Solving for Ux, Initial residual = 0.146367, Final residual = 6.73888e-09, No Iterations 32
smoothSolver:  Solving for Uy, Initial residual = 0.0667531, Final residual = 5.97296e-09, No Iterations 30
smoothSolver:  Solving for Uz, Initial residual = 0.0754821, Final residual = 7.18556e-09, No Iterations 30
DICPCG:  Solving for p, Initial residual = 0.697286, Final residual = 0.000653873, No Iterations 360
DICPCG:  Solving for p, Initial residual = 0.0311367, Final residual = 2.97694e-05, No Iterations 140
DICPCG:  Solving for p, Initial residual = 0.00160708, Final residual = 1.5501e-06, No Iterations 156
time step continuity errors : sum local = 2.8561e-08, global = 8.35068e-17, cumulative = 2.84876e-16
smoothSolver:  Solving for omega, Initial residual = 0.00210908, Final residual = 9.33295e-09, No Iterations 21
bounding omega, min: -20.3255 max: 490.506 average: 4.75275
smoothSolver:  Solving for k, Initial residual = 0.0595949, Final residual = 7.63913e-09, No Iterations 28
bounding k, min: -0.203855 max: 13.1963 average: 1.39689
ExecutionTime = 165.91 s  ClockTime = 166 s

Time = 9

smoothSolver:  Solving for Ux, Initial residual = 0.0543773, Final residual = 6.54163e-09, No Iterations 30
smoothSolver:  Solving for Uy, Initial residual = 0.0275733, Final residual = 9.19791e-09, No Iterations 27
smoothSolver:  Solving for Uz, Initial residual = 0.0628836, Final residual = 9.91327e-09, No Iterations 29
DICPCG:  Solving for p, Initial residual = 0.703733, Final residual = 0.000669252, No Iterations 362
DICPCG:  Solving for p, Initial residual = 0.0307693, Final residual = 3.0066e-05, No Iterations 148
DICPCG:  Solving for p, Initial residual = 0.00175869, Final residual = 1.69595e-06, No Iterations 156
time step continuity errors : sum local = 3.61099e-08, global = 4.68465e-17, cumulative = 3.31723e-16
smoothSolver:  Solving for omega, Initial residual = 0.00194901, Final residual = 7.75764e-09, No Iterations 21
bounding omega, min: -27.568 max: 460.796 average: 4.75456
smoothSolver:  Solving for k, Initial residual = 0.0433668, Final residual = 9.02749e-09, No Iterations 27
bounding k, min: -0.444821 max: 12.3513 average: 1.41681
ExecutionTime = 185.21 s  ClockTime = 185 s

Time = 10

smoothSolver:  Solving for Ux, Initial residual = 0.0855048, Final residual = 6.29834e-09, No Iterations 31
smoothSolver:  Solving for Uy, Initial residual = 0.0592446, Final residual = 6.6642e-09, No Iterations 29
smoothSolver:  Solving for Uz, Initial residual = 0.0546388, Final residual = 6.7138e-09, No Iterations 29
DICPCG:  Solving for p, Initial residual = 0.654035, Final residual = 0.000600059, No Iterations 346
DICPCG:  Solving for p, Initial residual = 0.0211272, Final residual = 2.09969e-05, No Iterations 98
DICPCG:  Solving for p, Initial residual = 0.00137653, Final residual = 1.29054e-06, No Iterations 298
time step continuity errors : sum local = 1.81954e-08, global = 4.14109e-17, cumulative = 3.73133e-16
smoothSolver:  Solving for omega, Initial residual = 0.0025512, Final residual = 7.88519e-09, No Iterations 21
bounding omega, min: -27.8106 max: 445.521 average: 4.69614
smoothSolver:  Solving for k, Initial residual = 0.051979, Final residual = 9.84112e-09, No Iterations 27
bounding k, min: -0.808243 max: 12.5812 average: 1.43407
ExecutionTime = 206.16 s  ClockTime = 206 s

Time = 11

smoothSolver:  Solving for Ux, Initial residual = 0.115869, Final residual = 7.93002e-09, No Iterations 31
smoothSolver:  Solving for Uy, Initial residual = 0.080078, Final residual = 7.87434e-09, No Iterations 29
smoothSolver:  Solving for Uz, Initial residual = 0.0452664, Final residual = 5.89438e-09, No Iterations 29
DICPCG:  Solving for p, Initial residual = 0.728473, Final residual = 0.000705483, No Iterations 355
DICPCG:  Solving for p, Initial residual = 0.0190383, Final residual = 1.89755e-05, No Iterations 151
DICPCG:  Solving for p, Initial residual = 0.00095466, Final residual = 9.21909e-07, No Iterations 165
time step continuity errors : sum local = 1.40074e-08, global = 5.78849e-17, cumulative = 4.31018e-16
smoothSolver:  Solving for omega, Initial residual = 0.00239652, Final residual = 7.78188e-09, No Iterations 21
bounding omega, min: -34.2168 max: 415.938 average: 4.54029
smoothSolver:  Solving for k, Initial residual = 0.0435592, Final residual = 8.37022e-09, No Iterations 27
bounding k, min: -0.46597 max: 13.3116 average: 1.452
ExecutionTime = 225.59 s  ClockTime = 226 s

Time = 12

smoothSolver:  Solving for Ux, Initial residual = 0.0198536, Final residual = 8.274e-09, No Iterations 27
smoothSolver:  Solving for Uy, Initial residual = 0.0470318, Final residual = 9.38966e-09, No Iterations 27
smoothSolver:  Solving for Uz, Initial residual = 0.043334, Final residual = 6.05261e-09, No Iterations 29
DICPCG:  Solving for p, Initial residual = 0.702889, Final residual = 0.000676998, No Iterations 352
DICPCG:  Solving for p, Initial residual = 0.0159686, Final residual = 1.56006e-05, No Iterations 151
DICPCG:  Solving for p, Initial residual = 0.000673291, Final residual = 6.21922e-07, No Iterations 336
time step continuity errors : sum local = 8.02416e-09, global = 8.80432e-17, cumulative = 5.19062e-16
smoothSolver:  Solving for omega, Initial residual = 0.00190805, Final residual = 7.09152e-09, No Iterations 21
bounding omega, min: -16.9183 max: 381.195 average: 4.39405
smoothSolver:  Solving for k, Initial residual = 0.0327814, Final residual = 6.5424e-09, No Iterations 27
bounding k, min: -0.509684 max: 12.9036 average: 1.46018
ExecutionTime = 248.55 s  ClockTime = 249 s

Time = 13

smoothSolver:  Solving for Ux, Initial residual = 0.0644418, Final residual = 7.02278e-09, No Iterations 30
smoothSolver:  Solving for Uy, Initial residual = 0.0313184, Final residual = 5.82186e-09, No Iterations 28
smoothSolver:  Solving for Uz, Initial residual = 0.0383147, Final residual = 8.2034e-09, No Iterations 28
DICPCG:  Solving for p, Initial residual = 0.660367, Final residual = 0.000655909, No Iterations 335
DICPCG:  Solving for p, Initial residual = 0.012541, Final residual = 1.2202e-05, No Iterations 94
DICPCG:  Solving for p, Initial residual = 0.000577474, Final residual = 5.69981e-07, No Iterations 324
time step continuity errors : sum local = 5.95251e-09, global = -9.21656e-18, cumulative = 5.09845e-16
smoothSolver:  Solving for omega, Initial residual = 0.00178008, Final residual = 6.50812e-09, No Iterations 21
bounding omega, min: -19.0822 max: 381.287 average: 4.30767
smoothSolver:  Solving for k, Initial residual = 0.029848, Final residual = 9.30177e-09, No Iterations 26
bounding k, min: -0.272856 max: 12.0993 average: 1.46782
ExecutionTime = 269.68 s  ClockTime = 270 s

Time = 14

smoothSolver:  Solving for Ux, Initial residual = 0.0531674, Final residual = 9.67805e-09, No Iterations 29
smoothSolver:  Solving for Uy, Initial residual = 0.0255604, Final residual = 8.14661e-09, No Iterations 27
smoothSolver:  Solving for Uz, Initial residual = 0.0287844, Final residual = 9.77443e-09, No Iterations 27
DICPCG:  Solving for p, Initial residual = 0.69222, Final residual = 0.000688087, No Iterations 352
DICPCG:  Solving for p, Initial residual = 0.0169875, Final residual = 1.66785e-05, No Iterations 152
DICPCG:  Solving for p, Initial residual = 0.00072221, Final residual = 7.13696e-07, No Iterations 165
time step continuity errors : sum local = 8.16276e-09, global = 2.689e-17, cumulative = 5.36735e-16
smoothSolver:  Solving for omega, Initial residual = 0.00146701, Final residual = 6.17278e-09, No Iterations 21
bounding omega, min: -14.7406 max: 1476.51 average: 4.31372
smoothSolver:  Solving for k, Initial residual = 0.0264924, Final residual = 8.4182e-09, No Iterations 26
bounding k, min: -0.433601 max: 11.5746 average: 1.47664
ExecutionTime = 288.93 s  ClockTime = 289 s

Time = 15

smoothSolver:  Solving for Ux, Initial residual = 0.0124995, Final residual = 8.10711e-09, No Iterations 26
smoothSolver:  Solving for Uy, Initial residual = 0.0324303, Final residual = 7.2608e-09, No Iterations 27
smoothSolver:  Solving for Uz, Initial residual = 0.0232927, Final residual = 7.82322e-09, No Iterations 27
DICPCG:  Solving for p, Initial residual = 0.64305, Final residual = 0.000626734, No Iterations 347
DICPCG:  Solving for p, Initial residual = 0.0118169, Final residual = 1.11196e-05, No Iterations 154
DICPCG:  Solving for p, Initial residual = 0.000456802, Final residual = 4.32977e-07, No Iterations 332
time step continuity errors : sum local = 4.25037e-09, global = 5.18431e-17, cumulative = 5.88578e-16
smoothSolver:  Solving for omega, Initial residual = 0.00147734, Final residual = 6.02239e-09, No Iterations 21
bounding omega, min: -32.9343 max: 457.893 average: 4.32762
smoothSolver:  Solving for k, Initial residual = 0.0255647, Final residual = 8.38606e-09, No Iterations 26
bounding k, min: -0.767716 max: 11.4661 average: 1.48524
ExecutionTime = 311.69 s  ClockTime = 312 s

Time = 16

smoothSolver:  Solving for Ux, Initial residual = 0.0475369, Final residual = 8.02001e-09, No Iterations 29
smoothSolver:  Solving for Uy, Initial residual = 0.0513002, Final residual = 7.2983e-09, No Iterations 28
smoothSolver:  Solving for Uz, Initial residual = 0.021974, Final residual = 7.37717e-09, No Iterations 27
DICPCG:  Solving for p, Initial residual = 0.653677, Final residual = 0.000619901, No Iterations 344
DICPCG:  Solving for p, Initial residual = 0.0095985, Final residual = 9.33038e-06, No Iterations 144
DICPCG:  Solving for p, Initial residual = 0.000420729, Final residual = 4.03001e-07, No Iterations 322
time step continuity errors : sum local = 3.33088e-09, global = 3.63299e-17, cumulative = 6.24908e-16
smoothSolver:  Solving for omega, Initial residual = 0.0013467, Final residual = 6.0028e-09, No Iterations 21
bounding omega, min: -25.2532 max: 436.235 average: 4.3107
smoothSolver:  Solving for k, Initial residual = 0.0251183, Final residual = 8.25413e-09, No Iterations 26
bounding k, min: -0.29349 max: 11.2167 average: 1.49324
ExecutionTime = 334 s  ClockTime = 334 s

Time = 17

smoothSolver:  Solving for Ux, Initial residual = 0.0303299, Final residual = 8.27281e-09, No Iterations 28
smoothSolver:  Solving for Uy, Initial residual = 0.0476651, Final residual = 6.47995e-09, No Iterations 28
smoothSolver:  Solving for Uz, Initial residual = 0.0223587, Final residual = 7.76416e-09, No Iterations 27
DICPCG:  Solving for p, Initial residual = 0.674239, Final residual = 0.000621957, No Iterations 356
DICPCG:  Solving for p, Initial residual = 0.011733, Final residual = 1.12944e-05, No Iterations 152
DICPCG:  Solving for p, Initial residual = 0.000488347, Final residual = 4.79541e-07, No Iterations 341
time step continuity errors : sum local = 3.91735e-09, global = -7.0096e-18, cumulative = 6.17898e-16
smoothSolver:  Solving for omega, Initial residual = 0.00117702, Final residual = 5.95252e-09, No Iterations 21
bounding omega, min: -35.9102 max: 444.862 average: 4.26745
smoothSolver:  Solving for k, Initial residual = 0.0221144, Final residual = 7.90382e-09, No Iterations 26
bounding k, min: -0.597755 max: 11.6806 average: 1.4987
ExecutionTime = 357.2 s  ClockTime = 357 s

Time = 18

smoothSolver:  Solving for Ux, Initial residual = 0.015092, Final residual = 6.20263e-09, No Iterations 27
smoothSolver:  Solving for Uy, Initial residual = 0.030963, Final residual = 6.71847e-09, No Iterations 27
smoothSolver:  Solving for Uz, Initial residual = 0.0223742, Final residual = 7.05563e-09, No Iterations 27
DICPCG:  Solving for p, Initial residual = 0.644192, Final residual = 0.000629498, No Iterations 347
DICPCG:  Solving for p, Initial residual = 0.00778231, Final residual = 7.76935e-06, No Iterations 145
DICPCG:  Solving for p, Initial residual = 0.000318454, Final residual = 3.16691e-07, No Iterations 317
time step continuity errors : sum local = 2.26557e-09, global = 4.63841e-17, cumulative = 6.64282e-16
smoothSolver:  Solving for omega, Initial residual = 0.00117816, Final residual = 5.90296e-09, No Iterations 21
bounding omega, min: -25.3277 max: 456.355 average: 4.23809
smoothSolver:  Solving for k, Initial residual = 0.021162, Final residual = 7.67527e-09, No Iterations 26
bounding k, min: -0.271124 max: 11.6655 average: 1.50299
ExecutionTime = 379.49 s  ClockTime = 380 s

Time = 19

smoothSolver:  Solving for Ux, Initial residual = 0.0272193, Final residual = 7.276e-09, No Iterations 28
smoothSolver:  Solving for Uy, Initial residual = 0.024207, Final residual = 6.15701e-09, No Iterations 27
smoothSolver:  Solving for Uz, Initial residual = 0.0195234, Final residual = 9.48319e-09, No Iterations 26
DICPCG:  Solving for p, Initial residual = 0.668009, Final residual = 0.000637176, No Iterations 347
DICPCG:  Solving for p, Initial residual = 0.00945915, Final residual = 9.4221e-06, No Iterations 147
DICPCG:  Solving for p, Initial residual = 0.000383931, Final residual = 3.6121e-07, No Iterations 339
time step continuity errors : sum local = 2.39969e-09, global = 2.49491e-17, cumulative = 6.89231e-16
smoothSolver:  Solving for omega, Initial residual = 0.00105043, Final residual = 9.89547e-09, No Iterations 20
bounding omega, min: -22.8313 max: 468.933 average: 4.2383
smoothSolver:  Solving for k, Initial residual = 0.0203118, Final residual = 7.40318e-09, No Iterations 26
bounding k, min: -0.612223 max: 12.3565 average: 1.50721
ExecutionTime = 402.29 s  ClockTime = 402 s

Time = 20

smoothSolver:  Solving for Ux, Initial residual = 0.0122275, Final residual = 8.24559e-09, No Iterations 26
smoothSolver:  Solving for Uy, Initial residual = 0.0270423, Final residual = 6.96094e-09, No Iterations 27
smoothSolver:  Solving for Uz, Initial residual = 0.0157889, Final residual = 8.03098e-09, No Iterations 26
DICPCG:  Solving for p, Initial residual = 0.655491, Final residual = 0.000616881, No Iterations 356
DICPCG:  Solving for p, Initial residual = 0.00926012, Final residual = 8.52227e-06, No Iterations 153
DICPCG:  Solving for p, Initial residual = 0.000361674, Final residual = 3.60012e-07, No Iterations 339
time step continuity errors : sum local = 2.32748e-09, global = 5.89951e-17, cumulative = 7.48227e-16
smoothSolver:  Solving for omega, Initial residual = 0.00103831, Final residual = 9.59122e-09, No Iterations 20
bounding omega, min: -32.7193 max: 478.978 average: 4.25808
smoothSolver:  Solving for k, Initial residual = 0.0193739, Final residual = 7.14913e-09, No Iterations 26
bounding k, min: -0.58815 max: 12.2248 average: 1.51088
ExecutionTime = 425.37 s  ClockTime = 425 s

Time = 21

smoothSolver:  Solving for Ux, Initial residual = 0.0140213, Final residual = 9.99066e-09, No Iterations 26
smoothSolver:  Solving for Uy, Initial residual = 0.0364216, Final residual = 8.92571e-09, No Iterations 27
smoothSolver:  Solving for Uz, Initial residual = 0.0138204, Final residual = 7.69301e-09, No Iterations 26
DICPCG:  Solving for p, Initial residual = 0.619121, Final residual = 0.000618854, No Iterations 190
DICPCG:  Solving for p, Initial residual = 0.00588633, Final residual = 5.67021e-06, No Iterations 317
DICPCG:  Solving for p, Initial residual = 0.000344539, Final residual = 3.38907e-07, No Iterations 324
time step continuity errors : sum local = 1.90425e-09, global = 2.61862e-17, cumulative = 7.74413e-16
smoothSolver:  Solving for omega, Initial residual = 0.000992522, Final residual = 9.32227e-09, No Iterations 20
bounding omega, min: -26.1835 max: 484.226 average: 4.27515
smoothSolver:  Solving for k, Initial residual = 0.018954, Final residual = 6.99246e-09, No Iterations 26
bounding k, min: -0.272278 max: 13.0259 average: 1.51366
ExecutionTime = 448.04 s  ClockTime = 448 s

Time = 22

smoothSolver:  Solving for Ux, Initial residual = 0.017656, Final residual = 7.45547e-09, No Iterations 27
smoothSolver:  Solving for Uy, Initial residual = 0.0416115, Final residual = 6.06354e-09, No Iterations 28
smoothSolver:  Solving for Uz, Initial residual = 0.0136067, Final residual = 7.56628e-09, No Iterations 26
DICPCG:  Solving for p, Initial residual = 0.635388, Final residual = 0.000582478, No Iterations 350
DICPCG:  Solving for p, Initial residual = 0.00830612, Final residual = 7.91578e-06, No Iterations 148
DICPCG:  Solving for p, Initial residual = 0.000397864, Final residual = 3.65844e-07, No Iterations 323
time step continuity errors : sum local = 1.94249e-09, global = 6.68741e-18, cumulative = 7.811e-16
smoothSolver:  Solving for omega, Initial residual = 0.000876531, Final residual = 9.09603e-09, No Iterations 20
bounding omega, min: -37.4704 max: 486.446 average: 4.28078
smoothSolver:  Solving for k, Initial residual = 0.0183568, Final residual = 6.78176e-09, No Iterations 26
bounding k, min: -0.311523 max: 13.6796 average: 1.51543
ExecutionTime = 470.55 s  ClockTime = 471 s

Time = 23

smoothSolver:  Solving for Ux, Initial residual = 0.00631215, Final residual = 9.78486e-09, No Iterations 24
smoothSolver:  Solving for Uy, Initial residual = 0.0379232, Final residual = 9.69818e-09, No Iterations 27
smoothSolver:  Solving for Uz, Initial residual = 0.0141691, Final residual = 7.44711e-09, No Iterations 26
DICPCG:  Solving for p, Initial residual = 0.620596, Final residual = 0.000575605, No Iterations 353
DICPCG:  Solving for p, Initial residual = 0.00728371, Final residual = 7.05239e-06, No Iterations 150
DICPCG:  Solving for p, Initial residual = 0.000337324, Final residual = 3.3021e-07, No Iterations 333
time step continuity errors : sum local = 1.63531e-09, global = 7.81054e-18, cumulative = 7.88911e-16
smoothSolver:  Solving for omega, Initial residual = 0.000823249, Final residual = 8.87456e-09, No Iterations 20
bounding omega, min: -31.2905 max: 488.41 average: 4.28098
smoothSolver:  Solving for k, Initial residual = 0.0178876, Final residual = 6.59623e-09, No Iterations 26
bounding k, min: -0.306612 max: 14.1987 average: 1.51639
ExecutionTime = 493.31 s  ClockTime = 493 s

Time = 24

smoothSolver:  Solving for Ux, Initial residual = 0.0097891, Final residual = 6.25367e-09, No Iterations 26
smoothSolver:  Solving for Uy, Initial residual = 0.0341265, Final residual = 9.36922e-09, No Iterations 27
smoothSolver:  Solving for Uz, Initial residual = 0.0135342, Final residual = 6.74836e-09, No Iterations 26
DICPCG:  Solving for p, Initial residual = 0.625838, Final residual = 0.000622189, No Iterations 161
DICPCG:  Solving for p, Initial residual = 0.005266, Final residual = 4.99818e-06, No Iterations 317
DICPCG:  Solving for p, Initial residual = 0.000261542, Final residual = 2.56644e-07, No Iterations 328
time step continuity errors : sum local = 1.09925e-09, global = 2.22722e-17, cumulative = 8.11183e-16
smoothSolver:  Solving for omega, Initial residual = 0.000778842, Final residual = 8.59277e-09, No Iterations 20
bounding omega, min: -23.3014 max: 490.139 average: 4.2877
smoothSolver:  Solving for k, Initial residual = 0.0176946, Final residual = 6.38259e-09, No Iterations 26
bounding k, min: -0.178257 max: 14.5187 average: 1.51694
ExecutionTime = 515.47 s  ClockTime = 516 s

Time = 25

smoothSolver:  Solving for Ux, Initial residual = 0.00903788, Final residual = 9.76437e-09, No Iterations 25
smoothSolver:  Solving for Uy, Initial residual = 0.0336318, Final residual = 9.46564e-09, No Iterations 27
smoothSolver:  Solving for Uz, Initial residual = 0.0114998, Final residual = 5.82435e-09, No Iterations 26
DICPCG:  Solving for p, Initial residual = 0.630131, Final residual = 0.000622173, No Iterations 349
DICPCG:  Solving for p, Initial residual = 0.00705083, Final residual = 6.93022e-06, No Iterations 149
DICPCG:  Solving for p, Initial residual = 0.000290179, Final residual = 2.89e-07, No Iterations 338
time step continuity errors : sum local = 1.19431e-09, global = 3.39042e-17, cumulative = 8.45087e-16
smoothSolver:  Solving for omega, Initial residual = 0.000749156, Final residual = 8.29277e-09, No Iterations 20
bounding omega, min: -20.7512 max: 489.414 average: 4.30358
smoothSolver:  Solving for k, Initial residual = 0.0172941, Final residual = 6.15566e-09, No Iterations 26
bounding k, min: -0.107115 max: 14.7317 average: 1.5172
ExecutionTime = 538.24 s  ClockTime = 538 s

Time = 26

smoothSolver:  Solving for Ux, Initial residual = 0.0041588, Final residual = 9.75309e-09, No Iterations 23
smoothSolver:  Solving for Uy, Initial residual = 0.0357509, Final residual = 9.74095e-09, No Iterations 27
smoothSolver:  Solving for Uz, Initial residual = 0.00995441, Final residual = 9.58896e-09, No Iterations 25
DICPCG:  Solving for p, Initial residual = 0.613531, Final residual = 0.000607283, No Iterations 349
DICPCG:  Solving for p, Initial residual = 0.00545888, Final residual = 5.4433e-06, No Iterations 148
DICPCG:  Solving for p, Initial residual = 0.000225348, Final residual = 2.21144e-07, No Iterations 333
time step continuity errors : sum local = 8.47827e-10, global = -1.10301e-17, cumulative = 8.34057e-16
smoothSolver:  Solving for omega, Initial residual = 0.000721437, Final residual = 7.99442e-09, No Iterations 20
bounding omega, min: -19.5925 max: 493.326 average: 4.32343
smoothSolver:  Solving for k, Initial residual = 0.0169118, Final residual = 5.97845e-09, No Iterations 26
bounding k, min: -0.195606 max: 15.1769 average: 1.51709
ExecutionTime = 560.83 s  ClockTime = 561 s

Time = 27

smoothSolver:  Solving for Ux, Initial residual = 0.00737945, Final residual = 8.11781e-09, No Iterations 25
smoothSolver:  Solving for Uy, Initial residual = 0.0385071, Final residual = 6.06259e-09, No Iterations 28
smoothSolver:  Solving for Uz, Initial residual = 0.00933241, Final residual = 9.23912e-09, No Iterations 25
DICPCG:  Solving for p, Initial residual = 0.603384, Final residual = 0.000595521, No Iterations 178
DICPCG:  Solving for p, Initial residual = 0.00476743, Final residual = 4.67553e-06, No Iterations 326
DICPCG:  Solving for p, Initial residual = 0.000312781, Final residual = 3.07477e-07, No Iterations 342
time step continuity errors : sum local = 1.02288e-09, global = 3.90677e-17, cumulative = 8.73125e-16
smoothSolver:  Solving for omega, Initial residual = 0.00067205, Final residual = 7.681e-09, No Iterations 20
bounding omega, min: -30.993 max: 496.842 average: 4.3396
smoothSolver:  Solving for k, Initial residual = 0.0164437, Final residual = 5.77838e-09, No Iterations 26
bounding k, min: -0.0795953 max: 15.779 average: 1.51663
ExecutionTime = 583.82 s  ClockTime = 584 s

Time = 28

smoothSolver:  Solving for Ux, Initial residual = 0.00567365, Final residual = 9.81091e-09, No Iterations 24
smoothSolver:  Solving for Uy, Initial residual = 0.0358154, Final residual = 5.84439e-09, No Iterations 28
smoothSolver:  Solving for Uz, Initial residual = 0.00897063, Final residual = 8.96611e-09, No Iterations 25
DICPCG:  Solving for p, Initial residual = 0.602378, Final residual = 0.000592425, No Iterations 349
DICPCG:  Solving for p, Initial residual = 0.00622261, Final residual = 6.10315e-06, No Iterations 149
DICPCG:  Solving for p, Initial residual = 0.00029303, Final residual = 2.75197e-07, No Iterations 323
time step continuity errors : sum local = 8.64939e-10, global = -5.07319e-19, cumulative = 8.72617e-16
smoothSolver:  Solving for omega, Initial residual = 0.000624838, Final residual = 7.37843e-09, No Iterations 20
bounding omega, min: -16.7389 max: 500.492 average: 4.35371
smoothSolver:  Solving for k, Initial residual = 0.0157903, Final residual = 9.70111e-09, No Iterations 25
bounding k, min: -0.107257 max: 16.4339 average: 1.51596
ExecutionTime = 606.26 s  ClockTime = 606 s

Time = 29

smoothSolver:  Solving for Ux, Initial residual = 0.00368949, Final residual = 8.85644e-09, No Iterations 23
smoothSolver:  Solving for Uy, Initial residual = 0.0321374, Final residual = 9.45665e-09, No Iterations 27
smoothSolver:  Solving for Uz, Initial residual = 0.00852286, Final residual = 8.76509e-09, No Iterations 25
DICPCG:  Solving for p, Initial residual = 0.58618, Final residual = 0.000580922, No Iterations 181
DICPCG:  Solving for p, Initial residual = 0.0051156, Final residual = 4.90064e-06, No Iterations 336
DICPCG:  Solving for p, Initial residual = 0.00035626, Final residual = 3.3797e-07, No Iterations 341
time step continuity errors : sum local = 9.71529e-10, global = 4.97791e-17, cumulative = 9.22397e-16
smoothSolver:  Solving for omega, Initial residual = 0.00059509, Final residual = 7.06321e-09, No Iterations 20
bounding omega, min: -29.6158 max: 504.984 average: 4.36788
smoothSolver:  Solving for k, Initial residual = 0.015256, Final residual = 9.34094e-09, No Iterations 25
bounding k, min: -0.205768 max: 17.2503 average: 1.5152
ExecutionTime = 629.45 s  ClockTime = 630 s

Time = 30

smoothSolver:  Solving for Ux, Initial residual = 0.00470115, Final residual = 7.74816e-09, No Iterations 24
smoothSolver:  Solving for Uy, Initial residual = 0.0307626, Final residual = 9.16982e-09, No Iterations 27
smoothSolver:  Solving for Uz, Initial residual = 0.00795388, Final residual = 8.35688e-09, No Iterations 25
DICPCG:  Solving for p, Initial residual = 0.589352, Final residual = 0.000575315, No Iterations 189
DICPCG:  Solving for p, Initial residual = 0.00482948, Final residual = 4.4902e-06, No Iterations 314
DICPCG:  Solving for p, Initial residual = 0.000338575, Final residual = 3.337e-07, No Iterations 336
time step continuity errors : sum local = 8.49451e-10, global = 8.19617e-19, cumulative = 9.23216e-16
smoothSolver:  Solving for omega, Initial residual = 0.000560127, Final residual = 6.71896e-09, No Iterations 20
bounding omega, min: -18.9552 max: 511.561 average: 4.3863
smoothSolver:  Solving for k, Initial residual = 0.0146054, Final residual = 8.92077e-09, No Iterations 25
bounding k, min: -0.136587 max: 17.7439 average: 1.51445
ExecutionTime = 652.19 s  ClockTime = 652 s

Time = 31

smoothSolver:  Solving for Ux, Initial residual = 0.0034436, Final residual = 8.58753e-09, No Iterations 23
smoothSolver:  Solving for Uy, Initial residual = 0.0297079, Final residual = 8.70166e-09, No Iterations 27
smoothSolver:  Solving for Uz, Initial residual = 0.00765898, Final residual = 8.12728e-09, No Iterations 25
DICPCG:  Solving for p, Initial residual = 0.582475, Final residual = 0.000540825, No Iterations 350
DICPCG:  Solving for p, Initial residual = 0.00542618, Final residual = 5.25798e-06, No Iterations 149
DICPCG:  Solving for p, Initial residual = 0.00025904, Final residual = 2.58511e-07, No Iterations 333
time step continuity errors : sum local = 6.20766e-10, global = 2.56378e-17, cumulative = 9.48854e-16
smoothSolver:  Solving for omega, Initial residual = 0.000527873, Final residual = 6.39222e-09, No Iterations 20
bounding omega, min: -21.6413 max: 519.233 average: 4.4061
smoothSolver:  Solving for k, Initial residual = 0.0139611, Final residual = 8.50428e-09, No Iterations 25
bounding k, min: -0.26203 max: 18.355 average: 1.5137
ExecutionTime = 674.8 s  ClockTime = 675 s

Time = 32

smoothSolver:  Solving for Ux, Initial residual = 0.00306873, Final residual = 7.90257e-09, No Iterations 23
smoothSolver:  Solving for Uy, Initial residual = 0.0289098, Final residual = 8.45676e-09, No Iterations 27
smoothSolver:  Solving for Uz, Initial residual = 0.00739461, Final residual = 7.91334e-09, No Iterations 25
DICPCG:  Solving for p, Initial residual = 0.559819, Final residual = 0.000518432, No Iterations 180
DICPCG:  Solving for p, Initial residual = 0.00469195, Final residual = 4.68462e-06, No Iterations 324
DICPCG:  Solving for p, Initial residual = 0.000291757, Final residual = 2.82978e-07, No Iterations 325
time step continuity errors : sum local = 6.18343e-10, global = 4.99572e-17, cumulative = 9.98811e-16
smoothSolver:  Solving for omega, Initial residual = 0.000496334, Final residual = 6.08335e-09, No Iterations 20
bounding omega, min: -28.3123 max: 526.644 average: 4.42488
smoothSolver:  Solving for k, Initial residual = 0.0134233, Final residual = 8.11952e-09, No Iterations 25
bounding k, min: -0.106955 max: 18.9002 average: 1.51286
ExecutionTime = 697.38 s  ClockTime = 697 s

Time = 33

smoothSolver:  Solving for Ux, Initial residual = 0.00329567, Final residual = 9.10221e-09, No Iterations 23
smoothSolver:  Solving for Uy, Initial residual = 0.0279188, Final residual = 8.2625e-09, No Iterations 27
smoothSolver:  Solving for Uz, Initial residual = 0.00719968, Final residual = 7.70808e-09, No Iterations 25
DICPCG:  Solving for p, Initial residual = 0.554363, Final residual = 0.00054958, No Iterations 189
DICPCG:  Solving for p, Initial residual = 0.005366, Final residual = 5.08334e-06, No Iterations 329
DICPCG:  Solving for p, Initial residual = 0.000385762, Final residual = 3.77799e-07, No Iterations 341
time step continuity errors : sum local = 7.33043e-10, global = 4.00349e-17, cumulative = 1.03885e-15
smoothSolver:  Solving for omega, Initial residual = 0.000468037, Final residual = 9.92926e-09, No Iterations 19
bounding omega, min: -16.6416 max: 533.905 average: 4.44056
smoothSolver:  Solving for k, Initial residual = 0.0128929, Final residual = 7.74492e-09, No Iterations 25
bounding k, min: -0.108984 max: 19.2886 average: 1.51194
ExecutionTime = 720.55 s  ClockTime = 721 s

Time = 34

smoothSolver:  Solving for Ux, Initial residual = 0.00243399, Final residual = 9.99521e-09, No Iterations 22
smoothSolver:  Solving for Uy, Initial residual = 0.0256876, Final residual = 7.73049e-09, No Iterations 27
smoothSolver:  Solving for Uz, Initial residual = 0.00709939, Final residual = 7.61955e-09, No Iterations 25
DICPCG:  Solving for p, Initial residual = 0.550507, Final residual = 0.000541236, No Iterations 348
DICPCG:  Solving for p, Initial residual = 0.00583708, Final residual = 5.71672e-06, No Iterations 110
DICPCG:  Solving for p, Initial residual = 0.000304679, Final residual = 2.83404e-07, No Iterations 341
time step continuity errors : sum local = 5.06069e-10, global = 2.21006e-17, cumulative = 1.06095e-15
smoothSolver:  Solving for omega, Initial residual = 0.000445835, Final residual = 9.47711e-09, No Iterations 19
bounding omega, min: -21.4199 max: 541.573 average: 4.45324
smoothSolver:  Solving for k, Initial residual = 0.0124206, Final residual = 7.39198e-09, No Iterations 25
bounding k, min: -0.1279 max: 19.465 average: 1.51096
ExecutionTime = 742.52 s  ClockTime = 743 s

Time = 35

smoothSolver:  Solving for Ux, Initial residual = 0.00248527, Final residual = 6.42963e-09, No Iterations 23
smoothSolver:  Solving for Uy, Initial residual = 0.0240968, Final residual = 7.3612e-09, No Iterations 27
smoothSolver:  Solving for Uz, Initial residual = 0.00690351, Final residual = 7.58282e-09, No Iterations 25
DICPCG:  Solving for p, Initial residual = 0.530685, Final residual = 0.000522778, No Iterations 161
DICPCG:  Solving for p, Initial residual = 0.00521502, Final residual = 4.90009e-06, No Iterations 326
DICPCG:  Solving for p, Initial residual = 0.000290824, Final residual = 2.84225e-07, No Iterations 339
time step continuity errors : sum local = 4.60363e-10, global = 2.17506e-17, cumulative = 1.0827e-15
smoothSolver:  Solving for omega, Initial residual = 0.000422958, Final residual = 9.05141e-09, No Iterations 19
bounding omega, min: -39.716 max: 550.747 average: 4.46599
smoothSolver:  Solving for k, Initial residual = 0.0119582, Final residual = 7.06728e-09, No Iterations 25
bounding k, min: -0.185789 max: 19.8885 average: 1.51
ExecutionTime = 765.04 s  ClockTime = 765 s

Time = 36

smoothSolver:  Solving for Ux, Initial residual = 0.00239429, Final residual = 6.3382e-09, No Iterations 23
smoothSolver:  Solving for Uy, Initial residual = 0.0237529, Final residual = 7.15486e-09, No Iterations 27
smoothSolver:  Solving for Uz, Initial residual = 0.00662946, Final residual = 7.52979e-09, No Iterations 25
DICPCG:  Solving for p, Initial residual = 0.521344, Final residual = 0.000495909, No Iterations 193
DICPCG:  Solving for p, Initial residual = 0.00557247, Final residual = 5.32388e-06, No Iterations 328
DICPCG:  Solving for p, Initial residual = 0.000367329, Final residual = 3.50622e-07, No Iterations 324
time step continuity errors : sum local = 5.12047e-10, global = 8.02011e-17, cumulative = 1.1629e-15
smoothSolver:  Solving for omega, Initial residual = 0.000398212, Final residual = 8.62768e-09, No Iterations 19
bounding omega, min: -13.6421 max: 560.741 average: 4.47914
smoothSolver:  Solving for k, Initial residual = 0.0114816, Final residual = 6.75327e-09, No Iterations 25
bounding k, min: -0.068176 max: 20.2755 average: 1.50905
ExecutionTime = 787.93 s  ClockTime = 788 s

Time = 37

smoothSolver:  Solving for Ux, Initial residual = 0.00198457, Final residual = 8.50976e-09, No Iterations 22
smoothSolver:  Solving for Uy, Initial residual = 0.0232685, Final residual = 6.9594e-09, No Iterations 27
smoothSolver:  Solving for Uz, Initial residual = 0.00646995, Final residual = 7.46467e-09, No Iterations 25
DICPCG:  Solving for p, Initial residual = 0.513769, Final residual = 0.000479355, No Iterations 182
DICPCG:  Solving for p, Initial residual = 0.00576092, Final residual = 5.70106e-06, No Iterations 334
DICPCG:  Solving for p, Initial residual = 0.000370002, Final residual = 3.42467e-07, No Iterations 334
time step continuity errors : sum local = 4.63817e-10, global = 4.23528e-17, cumulative = 1.20525e-15
smoothSolver:  Solving for omega, Initial residual = 0.000375909, Final residual = 8.2262e-09, No Iterations 19
bounding omega, min: -1.60388 max: 571.806 average: 4.49156
smoothSolver:  Solving for k, Initial residual = 0.0110433, Final residual = 6.47527e-09, No Iterations 25
bounding k, min: -0.0271497 max: 20.4764 average: 1.50809
ExecutionTime = 810.89 s  ClockTime = 811 s

Time = 38

smoothSolver:  Solving for Ux, Initial residual = 0.00195993, Final residual = 8.88399e-09, No Iterations 22
smoothSolver:  Solving for Uy, Initial residual = 0.0227809, Final residual = 6.89121e-09, No Iterations 27
smoothSolver:  Solving for Uz, Initial residual = 0.00634131, Final residual = 7.3981e-09, No Iterations 25
DICPCG:  Solving for p, Initial residual = 0.493173, Final residual = 0.000481532, No Iterations 153
DICPCG:  Solving for p, Initial residual = 0.00575441, Final residual = 5.51293e-06, No Iterations 329
DICPCG:  Solving for p, Initial residual = 0.000348688, Final residual = 3.43237e-07, No Iterations 332
time step continuity errors : sum local = 4.17516e-10, global = -4.76582e-18, cumulative = 1.20049e-15
smoothSolver:  Solving for omega, Initial residual = 0.000357472, Final residual = 7.85223e-09, No Iterations 19
bounding omega, min: -27.8691 max: 582.774 average: 4.50119
smoothSolver:  Solving for k, Initial residual = 0.0106636, Final residual = 6.24136e-09, No Iterations 25
bounding k, min: -0.0589926 max: 20.5673 average: 1.50709
ExecutionTime = 833.1 s  ClockTime = 833 s

Time = 39

smoothSolver:  Solving for Ux, Initial residual = 0.00179068, Final residual = 8.17546e-09, No Iterations 22
smoothSolver:  Solving for Uy, Initial residual = 0.0221364, Final residual = 6.72965e-09, No Iterations 27
smoothSolver:  Solving for Uz, Initial residual = 0.0062343, Final residual = 7.33741e-09, No Iterations 25
DICPCG:  Solving for p, Initial residual = 0.478077, Final residual = 0.000468475, No Iterations 191
DICPCG:  Solving for p, Initial residual = 0.00653261, Final residual = 6.11958e-06, No Iterations 328
DICPCG:  Solving for p, Initial residual = 0.00041987, Final residual = 4.12018e-07, No Iterations 339
time step continuity errors : sum local = 4.50856e-10, global = 4.30791e-17, cumulative = 1.24356e-15
smoothSolver:  Solving for omega, Initial residual = 0.000342595, Final residual = 7.49433e-09, No Iterations 19
bounding omega, min: -14.7762 max: 594.705 average: 4.50879
smoothSolver:  Solving for k, Initial residual = 0.0103087, Final residual = 6.02606e-09, No Iterations 25
bounding k, min: -0.0896641 max: 20.5832 average: 1.50606
ExecutionTime = 856.28 s  ClockTime = 856 s

Time = 40

smoothSolver:  Solving for Ux, Initial residual = 0.00164421, Final residual = 7.56293e-09, No Iterations 22
smoothSolver:  Solving for Uy, Initial residual = 0.0208925, Final residual = 6.47023e-09, No Iterations 27
smoothSolver:  Solving for Uz, Initial residual = 0.00620562, Final residual = 7.31911e-09, No Iterations 25
DICPCG:  Solving for p, Initial residual = 0.464119, Final residual = 0.000454593, No Iterations 168
DICPCG:  Solving for p, Initial residual = 0.00661187, Final residual = 6.60152e-06, No Iterations 327
DICPCG:  Solving for p, Initial residual = 0.00039842, Final residual = 3.84394e-07, No Iterations 333
time step continuity errors : sum local = 3.85639e-10, global = 1.87167e-17, cumulative = 1.26228e-15
smoothSolver:  Solving for omega, Initial residual = 0.000329147, Final residual = 7.1656e-09, No Iterations 19
bounding omega, min: -14.5233 max: 606.174 average: 4.51441
smoothSolver:  Solving for k, Initial residual = 0.00999493, Final residual = 5.84069e-09, No Iterations 25
bounding k, min: -0.110287 max: 20.591 average: 1.50502
ExecutionTime = 878.78 s  ClockTime = 879 s

Time = 41

smoothSolver:  Solving for Ux, Initial residual = 0.00161951, Final residual = 7.78974e-09, No Iterations 22
smoothSolver:  Solving for Uy, Initial residual = 0.0201737, Final residual = 6.35759e-09, No Iterations 27
smoothSolver:  Solving for Uz, Initial residual = 0.00619907, Final residual = 7.31893e-09, No Iterations 25
DICPCG:  Solving for p, Initial residual = 0.443731, Final residual = 0.00042387, No Iterations 156
DICPCG:  Solving for p, Initial residual = 0.00634378, Final residual = 5.9702e-06, No Iterations 330
DICPCG:  Solving for p, Initial residual = 0.000387903, Final residual = 3.49411e-07, No Iterations 334
time step continuity errors : sum local = 3.25614e-10, global = 2.3798e-18, cumulative = 1.26466e-15
smoothSolver:  Solving for omega, Initial residual = 0.00031473, Final residual = 6.86363e-09, No Iterations 19
bounding omega, min: -4.12837 max: 619.275 average: 4.51886
smoothSolver:  Solving for k, Initial residual = 0.00971034, Final residual = 9.91318e-09, No Iterations 24
bounding k, min: -0.18794 max: 20.6322 average: 1.504
ExecutionTime = 901.1 s  ClockTime = 901 s

Time = 42

smoothSolver:  Solving for Ux, Initial residual = 0.00150022, Final residual = 7.16595e-09, No Iterations 22
smoothSolver:  Solving for Uy, Initial residual = 0.0199569, Final residual = 6.32963e-09, No Iterations 27
smoothSolver:  Solving for Uz, Initial residual = 0.00620165, Final residual = 7.30732e-09, No Iterations 25
DICPCG:  Solving for p, Initial residual = 0.427343, Final residual = 0.000404108, No Iterations 185
DICPCG:  Solving for p, Initial residual = 0.0064076, Final residual = 5.9736e-06, No Iterations 331
DICPCG:  Solving for p, Initial residual = 0.000415202, Final residual = 3.98604e-07, No Iterations 336
time step continuity errors : sum local = 3.45666e-10, global = 8.09387e-17, cumulative = 1.3456e-15
smoothSolver:  Solving for omega, Initial residual = 0.000300778, Final residual = 6.58651e-09, No Iterations 19
bounding omega, min: -8.32624 max: 631.151 average: 4.52267
smoothSolver:  Solving for k, Initial residual = 0.00945366, Final residual = 9.68261e-09, No Iterations 24
ExecutionTime = 924.04 s  ClockTime = 924 s

Time = 43

smoothSolver:  Solving for Ux, Initial residual = 0.00138971, Final residual = 6.60696e-09, No Iterations 22
smoothSolver:  Solving for Uy, Initial residual = 0.019665, Final residual = 6.33116e-09, No Iterations 27
smoothSolver:  Solving for Uz, Initial residual = 0.00619805, Final residual = 7.28009e-09, No Iterations 25
DICPCG:  Solving for p, Initial residual = 0.410819, Final residual = 0.000393622, No Iterations 161
DICPCG:  Solving for p, Initial residual = 0.00628045, Final residual = 5.84797e-06, No Iterations 316
DICPCG:  Solving for p, Initial residual = 0.000385493, Final residual = 3.75076e-07, No Iterations 334
time step continuity errors : sum local = 3.04323e-10, global = 7.34417e-17, cumulative = 1.41904e-15
smoothSolver:  Solving for omega, Initial residual = 0.000289135, Final residual = 6.33707e-09, No Iterations 19
bounding omega, min: -22.1375 max: 643.989 average: 4.52502
smoothSolver:  Solving for k, Initial residual = 0.00922539, Final residual = 9.49241e-09, No Iterations 24
bounding k, min: -0.0660086 max: 20.4985 average: 1.50203
ExecutionTime = 946.16 s  ClockTime = 946 s

Time = 44

smoothSolver:  Solving for Ux, Initial residual = 0.00132686, Final residual = 6.43207e-09, No Iterations 22
smoothSolver:  Solving for Uy, Initial residual = 0.0195949, Final residual = 6.36486e-09, No Iterations 27
smoothSolver:  Solving for Uz, Initial residual = 0.00618935, Final residual = 7.26418e-09, No Iterations 25
DICPCG:  Solving for p, Initial residual = 0.391624, Final residual = 0.000379614, No Iterations 181
DICPCG:  Solving for p, Initial residual = 0.00632097, Final residual = 6.00362e-06, No Iterations 332
DICPCG:  Solving for p, Initial residual = 0.000421273, Final residual = 4.12976e-07, No Iterations 338
time step continuity errors : sum local = 3.11043e-10, global = 1.09146e-17, cumulative = 1.42996e-15
smoothSolver:  Solving for omega, Initial residual = 0.000279515, Final residual = 6.11837e-09, No Iterations 19
bounding omega, min: -1.27166 max: 652.553 average: 4.52663
smoothSolver:  Solving for k, Initial residual = 0.00903442, Final residual = 9.34962e-09, No Iterations 24
bounding k, min: -0.0713727 max: 20.2677 average: 1.50105
ExecutionTime = 969.44 s  ClockTime = 970 s

Time = 45

smoothSolver:  Solving for Ux, Initial residual = 0.00127055, Final residual = 6.22201e-09, No Iterations 22
smoothSolver:  Solving for Uy, Initial residual = 0.0192225, Final residual = 6.30369e-09, No Iterations 27
smoothSolver:  Solving for Uz, Initial residual = 0.00623205, Final residual = 7.28745e-09, No Iterations 25
DICPCG:  Solving for p, Initial residual = 0.37705, Final residual = 0.000375685, No Iterations 189
DICPCG:  Solving for p, Initial residual = 0.0063427, Final residual = 6.11003e-06, No Iterations 321
DICPCG:  Solving for p, Initial residual = 0.000424798, Final residual = 4.21922e-07, No Iterations 339
time step continuity errors : sum local = 2.97948e-10, global = 5.97503e-17, cumulative = 1.48971e-15
smoothSolver:  Solving for omega, Initial residual = 0.000270931, Final residual = 5.92418e-09, No Iterations 19
bounding omega, min: -9.59489 max: 661.062 average: 4.52678
smoothSolver:  Solving for k, Initial residual = 0.00886166, Final residual = 9.23922e-09, No Iterations 24
ExecutionTime = 993.46 s  ClockTime = 994 s

Time = 46

smoothSolver:  Solving for Ux, Initial residual = 0.00123455, Final residual = 6.1573e-09, No Iterations 22
smoothSolver:  Solving for Uy, Initial residual = 0.0186301, Final residual = 6.23343e-09, No Iterations 27
smoothSolver:  Solving for Uz, Initial residual = 0.00633122, Final residual = 7.3548e-09, No Iterations 25
DICPCG:  Solving for p, Initial residual = 0.364824, Final residual = 0.000359899, No Iterations 175
DICPCG:  Solving for p, Initial residual = 0.00602383, Final residual = 5.66689e-06, No Iterations 332
DICPCG:  Solving for p, Initial residual = 0.000367889, Final residual = 3.37559e-07, No Iterations 331
time step continuity errors : sum local = 2.26383e-10, global = 3.17644e-17, cumulative = 1.52147e-15
smoothSolver:  Solving for omega, Initial residual = 0.000262887, Final residual = 9.88309e-09, No Iterations 18
bounding omega, min: -8.16243 max: 663.708 average: 4.5262
smoothSolver:  Solving for k, Initial residual = 0.00870589, Final residual = 9.15478e-09, No Iterations 24
bounding k, min: -0.072243 max: 19.8902 average: 1.49916
ExecutionTime = 1016.19 s  ClockTime = 1016 s

Time = 47

smoothSolver:  Solving for Ux, Initial residual = 0.00119926, Final residual = 6.02383e-09, No Iterations 22
smoothSolver:  Solving for Uy, Initial residual = 0.0184892, Final residual = 6.23227e-09, No Iterations 27
smoothSolver:  Solving for Uz, Initial residual = 0.00646305, Final residual = 7.43768e-09, No Iterations 25
DICPCG:  Solving for p, Initial residual = 0.352723, Final residual = 0.000333247, No Iterations 157
DICPCG:  Solving for p, Initial residual = 0.00596768, Final residual = 5.70179e-06, No Iterations 340
DICPCG:  Solving for p, Initial residual = 0.0003597, Final residual = 3.25567e-07, No Iterations 333
time step continuity errors : sum local = 2.07898e-10, global = 4.32034e-17, cumulative = 1.56467e-15
smoothSolver:  Solving for omega, Initial residual = 0.000254133, Final residual = 9.60002e-09, No Iterations 18
bounding omega, min: -1.21774 max: 666.825 average: 4.52527
smoothSolver:  Solving for k, Initial residual = 0.00856129, Final residual = 9.09291e-09, No Iterations 24
bounding k, min: -0.11627 max: 19.5878 average: 1.49826
ExecutionTime = 1038.68 s  ClockTime = 1039 s

Time = 48

smoothSolver:  Solving for Ux, Initial residual = 0.00114323, Final residual = 9.84561e-09, No Iterations 21
smoothSolver:  Solving for Uy, Initial residual = 0.0183371, Final residual = 6.22164e-09, No Iterations 27
smoothSolver:  Solving for Uz, Initial residual = 0.00659664, Final residual = 7.51209e-09, No Iterations 25
DICPCG:  Solving for p, Initial residual = 0.342347, Final residual = 0.00033751, No Iterations 137
DICPCG:  Solving for p, Initial residual = 0.00589761, Final residual = 5.44935e-06, No Iterations 330
DICPCG:  Solving for p, Initial residual = 0.000363545, Final residual = 3.61274e-07, No Iterations 340
time step continuity errors : sum local = 2.20184e-10, global = 5.65292e-17, cumulative = 1.6212e-15
smoothSolver:  Solving for omega, Initial residual = 0.000246177, Final residual = 9.3332e-09, No Iterations 18
bounding omega, min: -17.7856 max: 665.076 average: 4.52422
smoothSolver:  Solving for k, Initial residual = 0.00843044, Final residual = 9.05885e-09, No Iterations 24
ExecutionTime = 1060.65 s  ClockTime = 1061 s

Time = 49

smoothSolver:  Solving for Ux, Initial residual = 0.00109821, Final residual = 9.46993e-09, No Iterations 21
smoothSolver:  Solving for Uy, Initial residual = 0.0181973, Final residual = 6.20977e-09, No Iterations 27
smoothSolver:  Solving for Uz, Initial residual = 0.00670507, Final residual = 7.57524e-09, No Iterations 25
DICPCG:  Solving for p, Initial residual = 0.332105, Final residual = 0.000329492, No Iterations 172
DICPCG:  Solving for p, Initial residual = 0.0057934, Final residual = 5.54414e-06, No Iterations 332
DICPCG:  Solving for p, Initial residual = 0.000368256, Final residual = 3.49114e-07, No Iterations 333
time step continuity errors : sum local = 2.03019e-10, global = -1.89948e-17, cumulative = 1.60221e-15
smoothSolver:  Solving for omega, Initial residual = 0.000239379, Final residual = 9.08207e-09, No Iterations 18
bounding omega, min: -6.34704 max: 664.654 average: 4.5228
smoothSolver:  Solving for k, Initial residual = 0.0083154, Final residual = 9.04782e-09, No Iterations 24
bounding k, min: -0.0134528 max: 19.0581 average: 1.49651
ExecutionTime = 1083.33 s  ClockTime = 1083 s

Time = 50

smoothSolver:  Solving for Ux, Initial residual = 0.00107167, Final residual = 9.28919e-09, No Iterations 21
smoothSolver:  Solving for Uy, Initial residual = 0.0181076, Final residual = 6.18134e-09, No Iterations 27
smoothSolver:  Solving for Uz, Initial residual = 0.00681538, Final residual = 7.65168e-09, No Iterations 25
DICPCG:  Solving for p, Initial residual = 0.321835, Final residual = 0.000305993, No Iterations 183
DICPCG:  Solving for p, Initial residual = 0.00577133, Final residual = 5.65914e-06, No Iterations 333
DICPCG:  Solving for p, Initial residual = 0.000385089, Final residual = 3.78204e-07, No Iterations 336
time step continuity errors : sum local = 2.09841e-10, global = 7.88189e-17, cumulative = 1.68103e-15
smoothSolver:  Solving for omega, Initial residual = 0.00023334, Final residual = 8.84396e-09, No Iterations 18
bounding omega, min: -2.28907 max: 662.188 average: 4.52104
smoothSolver:  Solving for k, Initial residual = 0.00821451, Final residual = 9.05236e-09, No Iterations 24
bounding k, min: -0.152114 max: 18.6079 average: 1.49565
ExecutionTime = 1106.33 s  ClockTime = 1106 s

Time = 51

smoothSolver:  Solving for Ux, Initial residual = 0.00105409, Final residual = 9.18246e-09, No Iterations 21
smoothSolver:  Solving for Uy, Initial residual = 0.017835, Final residual = 6.11752e-09, No Iterations 27
smoothSolver:  Solving for Uz, Initial residual = 0.00695773, Final residual = 7.76602e-09, No Iterations 25
DICPCG:  Solving for p, Initial residual = 0.311221, Final residual = 0.000311137, No Iterations 178
DICPCG:  Solving for p, Initial residual = 0.00563369, Final residual = 5.57197e-06, No Iterations 333
DICPCG:  Solving for p, Initial residual = 0.000362573, Final residual = 3.44874e-07, No Iterations 332
time step continuity errors : sum local = 1.84029e-10, global = 2.08626e-17, cumulative = 1.70189e-15
smoothSolver:  Solving for omega, Initial residual = 0.000227526, Final residual = 8.62084e-09, No Iterations 18
bounding omega, min: -9.29594 max: 661.046 average: 4.51924
smoothSolver:  Solving for k, Initial residual = 0.00811628, Final residual = 9.06218e-09, No Iterations 24
bounding k, min: -0.0257828 max: 18.282 average: 1.49481
ExecutionTime = 1129.1 s  ClockTime = 1129 s

Time = 52

smoothSolver:  Solving for Ux, Initial residual = 0.00103708, Final residual = 9.05813e-09, No Iterations 21
smoothSolver:  Solving for Uy, Initial residual = 0.0176882, Final residual = 6.07744e-09, No Iterations 27
smoothSolver:  Solving for Uz, Initial residual = 0.00713296, Final residual = 7.90871e-09, No Iterations 25
DICPCG:  Solving for p, Initial residual = 0.30112, Final residual = 0.00028991, No Iterations 114
DICPCG:  Solving for p, Initial residual = 0.00557919, Final residual = 5.56401e-06, No Iterations 163
DICPCG:  Solving for p, Initial residual = 0.000334743, Final residual = 3.20003e-07, No Iterations 328
time step continuity errors : sum local = 1.64592e-10, global = 6.19551e-17, cumulative = 1.76385e-15
smoothSolver:  Solving for omega, Initial residual = 0.000221757, Final residual = 8.41331e-09, No Iterations 18
bounding omega, min: -3.67003 max: 660.193 average: 4.51772
smoothSolver:  Solving for k, Initial residual = 0.00802484, Final residual = 9.07775e-09, No Iterations 24
bounding k, min: -0.0269294 max: 17.9068 average: 1.49397
ExecutionTime = 1146.71 s  ClockTime = 1147 s

Time = 53

smoothSolver:  Solving for Ux, Initial residual = 0.00101282, Final residual = 8.81963e-09, No Iterations 21
smoothSolver:  Solving for Uy, Initial residual = 0.0176221, Final residual = 6.03005e-09, No Iterations 27
smoothSolver:  Solving for Uz, Initial residual = 0.00731548, Final residual = 8.04103e-09, No Iterations 25
DICPCG:  Solving for p, Initial residual = 0.292283, Final residual = 0.00027635, No Iterations 159
DICPCG:  Solving for p, Initial residual = 0.00565392, Final residual = 5.64612e-06, No Iterations 335
DICPCG:  Solving for p, Initial residual = 0.000344319, Final residual = 3.32824e-07, No Iterations 332
time step continuity errors : sum local = 1.65347e-10, global = 9.87437e-17, cumulative = 1.86259e-15
smoothSolver:  Solving for omega, Initial residual = 0.000216188, Final residual = 8.22495e-09, No Iterations 18
bounding omega, min: -8.77275 max: 660.351 average: 4.51661
smoothSolver:  Solving for k, Initial residual = 0.00793956, Final residual = 9.09968e-09, No Iterations 24
bounding k, min: -0.0992571 max: 17.6186 average: 1.49316
ExecutionTime = 1169.14 s  ClockTime = 1169 s

Time = 54

smoothSolver:  Solving for Ux, Initial residual = 0.000983933, Final residual = 8.55289e-09, No Iterations 21
smoothSolver:  Solving for Uy, Initial residual = 0.0174995, Final residual = 5.95626e-09, No Iterations 27
smoothSolver:  Solving for Uz, Initial residual = 0.00748176, Final residual = 8.15368e-09, No Iterations 25
DICPCG:  Solving for p, Initial residual = 0.284205, Final residual = 0.000280995, No Iterations 162
DICPCG:  Solving for p, Initial residual = 0.0056418, Final residual = 5.45716e-06, No Iterations 169
DICPCG:  Solving for p, Initial residual = 0.00033832, Final residual = 3.37132e-07, No Iterations 323
time step continuity errors : sum local = 1.61712e-10, global = 2.20447e-17, cumulative = 1.88463e-15
smoothSolver:  Solving for omega, Initial residual = 0.000210981, Final residual = 8.0507e-09, No Iterations 18
bounding omega, min: -9.53735 max: 660.925 average: 4.51609
smoothSolver:  Solving for k, Initial residual = 0.0078564, Final residual = 9.13432e-09, No Iterations 24
bounding k, min: -0.0197461 max: 17.2352 average: 1.49236
ExecutionTime = 1187.82 s  ClockTime = 1188 s

Time = 55

smoothSolver:  Solving for Ux, Initial residual = 0.000963185, Final residual = 8.3694e-09, No Iterations 21
smoothSolver:  Solving for Uy, Initial residual = 0.0173893, Final residual = 5.87372e-09, No Iterations 27
smoothSolver:  Solving for Uz, Initial residual = 0.00763364, Final residual = 8.2596e-09, No Iterations 25
DICPCG:  Solving for p, Initial residual = 0.276455, Final residual = 0.000272718, No Iterations 180
DICPCG:  Solving for p, Initial residual = 0.00562918, Final residual = 5.34787e-06, No Iterations 330
DICPCG:  Solving for p, Initial residual = 0.000338987, Final residual = 3.1658e-07, No Iterations 331
time step continuity errors : sum local = 1.46581e-10, global = 7.75906e-17, cumulative = 1.96222e-15
smoothSolver:  Solving for omega, Initial residual = 0.000206264, Final residual = 7.89834e-09, No Iterations 18
bounding omega, min: -12.1408 max: 661.021 average: 4.51583
smoothSolver:  Solving for k, Initial residual = 0.00777833, Final residual = 9.16951e-09, No Iterations 24
bounding k, min: -0.0841285 max: 16.8386 average: 1.49159
ExecutionTime = 1210.62 s  ClockTime = 1211 s

Time = 56

smoothSolver:  Solving for Ux, Initial residual = 0.000951314, Final residual = 8.24796e-09, No Iterations 21
smoothSolver:  Solving for Uy, Initial residual = 0.0173323, Final residual = 5.80374e-09, No Iterations 27
smoothSolver:  Solving for Uz, Initial residual = 0.00778941, Final residual = 8.37811e-09, No Iterations 25
DICPCG:  Solving for p, Initial residual = 0.268423, Final residual = 0.000262444, No Iterations 181
DICPCG:  Solving for p, Initial residual = 0.00553256, Final residual = 5.34303e-06, No Iterations 334
DICPCG:  Solving for p, Initial residual = 0.00033923, Final residual = 3.39036e-07, No Iterations 331
time step continuity errors : sum local = 1.51832e-10, global = 5.92685e-18, cumulative = 1.96815e-15
smoothSolver:  Solving for omega, Initial residual = 0.000201807, Final residual = 7.7596e-09, No Iterations 18
bounding omega, min: -4.59472 max: 661.773 average: 4.51603
smoothSolver:  Solving for k, Initial residual = 0.00770649, Final residual = 9.2e-09, No Iterations 24
bounding k, min: -0.00994335 max: 16.4545 average: 1.49082
ExecutionTime = 1233.49 s  ClockTime = 1234 s

Time = 57

smoothSolver:  Solving for Ux, Initial residual = 0.000940837, Final residual = 8.13088e-09, No Iterations 21
smoothSolver:  Solving for Uy, Initial residual = 0.0173304, Final residual = 9.96229e-09, No Iterations 26
smoothSolver:  Solving for Uz, Initial residual = 0.00795877, Final residual = 8.50622e-09, No Iterations 25
DICPCG:  Solving for p, Initial residual = 0.260084, Final residual = 0.000255238, No Iterations 170
DICPCG:  Solving for p, Initial residual = 0.00533616, Final residual = 4.94289e-06, No Iterations 325
DICPCG:  Solving for p, Initial residual = 0.000321076, Final residual = 2.99042e-07, No Iterations 99
time step continuity errors : sum local = 1.55727e-10, global = -2.21651e-17, cumulative = 1.94599e-15
smoothSolver:  Solving for omega, Initial residual = 0.000197501, Final residual = 7.63195e-09, No Iterations 18
bounding omega, min: -8.41584 max: 662.42 average: 4.51638
smoothSolver:  Solving for k, Initial residual = 0.00763604, Final residual = 9.21999e-09, No Iterations 24
bounding k, min: -0.215721 max: 16.0117 average: 1.49007
ExecutionTime = 1250.81 s  ClockTime = 1251 s

Time = 58

smoothSolver:  Solving for Ux, Initial residual = 0.000928146, Final residual = 7.98158e-09, No Iterations 21
smoothSolver:  Solving for Uy, Initial residual = 0.0173602, Final residual = 9.89492e-09, No Iterations 26
smoothSolver:  Solving for Uz, Initial residual = 0.00813256, Final residual = 8.62638e-09, No Iterations 25
DICPCG:  Solving for p, Initial residual = 0.253506, Final residual = 0.000252706, No Iterations 159
DICPCG:  Solving for p, Initial residual = 0.00515469, Final residual = 4.99658e-06, No Iterations 327
DICPCG:  Solving for p, Initial residual = 0.000313956, Final residual = 3.07784e-07, No Iterations 331
time step continuity errors : sum local = 1.30019e-10, global = 2.1567e-18, cumulative = 1.94814e-15
smoothSolver:  Solving for omega, Initial residual = 0.000193293, Final residual = 7.51385e-09, No Iterations 18
bounding omega, min: -4.80552 max: 663.939 average: 4.51744
smoothSolver:  Solving for k, Initial residual = 0.00756961, Final residual = 9.2391e-09, No Iterations 24
bounding k, min: -0.0297301 max: 15.6304 average: 1.48934
ExecutionTime = 1273.03 s  ClockTime = 1273 s

Time = 59

smoothSolver:  Solving for Ux, Initial residual = 0.000911932, Final residual = 7.8059e-09, No Iterations 21
smoothSolver:  Solving for Uy, Initial residual = 0.0173631, Final residual = 9.8126e-09, No Iterations 26
smoothSolver:  Solving for Uz, Initial residual = 0.00829564, Final residual = 8.72817e-09, No Iterations 25
DICPCG:  Solving for p, Initial residual = 0.246999, Final residual = 0.000241262, No Iterations 160
DICPCG:  Solving for p, Initial residual = 0.00496624, Final residual = 4.75608e-06, No Iterations 319
DICPCG:  Solving for p, Initial residual = 0.000302224, Final residual = 2.93415e-07, No Iterations 333
time step continuity errors : sum local = 1.2078e-10, global = 6.61664e-18, cumulative = 1.95476e-15
smoothSolver:  Solving for omega, Initial residual = 0.000189237, Final residual = 7.4059e-09, No Iterations 18
bounding omega, min: -9.32985 max: 666.024 average: 4.51884
smoothSolver:  Solving for k, Initial residual = 0.00750884, Final residual = 9.25892e-09, No Iterations 24
bounding k, min: -0.205627 max: 15.2848 average: 1.48863
ExecutionTime = 1295.14 s  ClockTime = 1295 s

Time = 60

smoothSolver:  Solving for Ux, Initial residual = 0.000896282, Final residual = 7.6411e-09, No Iterations 21
smoothSolver:  Solving for Uy, Initial residual = 0.0173687, Final residual = 9.72477e-09, No Iterations 26
smoothSolver:  Solving for Uz, Initial residual = 0.00844211, Final residual = 8.81781e-09, No Iterations 25
DICPCG:  Solving for p, Initial residual = 0.241157, Final residual = 0.000233543, No Iterations 160
DICPCG:  Solving for p, Initial residual = 0.00483349, Final residual = 4.805e-06, No Iterations 152
DICPCG:  Solving for p, Initial residual = 0.000286571, Final residual = 2.67017e-07, No Iterations 332
time step continuity errors : sum local = 1.07085e-10, global = -2.21944e-17, cumulative = 1.93256e-15
smoothSolver:  Solving for omega, Initial residual = 0.000185407, Final residual = 7.30781e-09, No Iterations 18
bounding omega, min: -6.31964 max: 668.639 average: 4.52053
smoothSolver:  Solving for k, Initial residual = 0.00744631, Final residual = 9.27918e-09, No Iterations 24
bounding k, min: -0.215748 max: 14.9178 average: 1.48794
ExecutionTime = 1313.53 s  ClockTime = 1314 s

Time = 61

smoothSolver:  Solving for Ux, Initial residual = 0.000884578, Final residual = 7.50012e-09, No Iterations 21
smoothSolver:  Solving for Uy, Initial residual = 0.0174254, Final residual = 9.65543e-09, No Iterations 26
smoothSolver:  Solving for Uz, Initial residual = 0.00858095, Final residual = 8.9061e-09, No Iterations 25
DICPCG:  Solving for p, Initial residual = 0.234228, Final residual = 0.000227665, No Iterations 181
DICPCG:  Solving for p, Initial residual = 0.00472065, Final residual = 4.53864e-06, No Iterations 329
DICPCG:  Solving for p, Initial residual = 0.000278189, Final residual = 2.74758e-07, No Iterations 97
time step continuity errors : sum local = 1.40988e-10, global = 6.67595e-17, cumulative = 1.99932e-15
smoothSolver:  Solving for omega, Initial residual = 0.000181769, Final residual = 7.21645e-09, No Iterations 18
bounding omega, min: -8.15518 max: 671.312 average: 4.52269
smoothSolver:  Solving for k, Initial residual = 0.00738631, Final residual = 9.3019e-09, No Iterations 24
bounding k, min: -0.186937 max: 14.5848 average: 1.48729
ExecutionTime = 1331.16 s  ClockTime = 1331 s

Time = 62

smoothSolver:  Solving for Ux, Initial residual = 0.00087445, Final residual = 7.36407e-09, No Iterations 21
smoothSolver:  Solving for Uy, Initial residual = 0.0175459, Final residual = 9.61511e-09, No Iterations 26
smoothSolver:  Solving for Uz, Initial residual = 0.0087197, Final residual = 8.99468e-09, No Iterations 25
DICPCG:  Solving for p, Initial residual = 0.22736, Final residual = 0.000226477, No Iterations 176
DICPCG:  Solving for p, Initial residual = 0.00462289, Final residual = 4.32556e-06, No Iterations 326
DICPCG:  Solving for p, Initial residual = 0.000268257, Final residual = 2.58451e-07, No Iterations 100
time step continuity errors : sum local = 1.22662e-10, global = 4.57766e-17, cumulative = 2.0451e-15
smoothSolver:  Solving for omega, Initial residual = 0.000178215, Final residual = 7.13079e-09, No Iterations 18
bounding omega, min: -10.2782 max: 675.101 average: 4.5251
smoothSolver:  Solving for k, Initial residual = 0.00733045, Final residual = 9.32296e-09, No Iterations 24
bounding k, min: -0.0208533 max: 14.2084 average: 1.48666
ExecutionTime = 1348.64 s  ClockTime = 1349 s

Time = 63

smoothSolver:  Solving for Ux, Initial residual = 0.000863082, Final residual = 7.21659e-09, No Iterations 21
smoothSolver:  Solving for Uy, Initial residual = 0.0177194, Final residual = 9.59207e-09, No Iterations 26
smoothSolver:  Solving for Uz, Initial residual = 0.00885485, Final residual = 9.07231e-09, No Iterations 25
DICPCG:  Solving for p, Initial residual = 0.220818, Final residual = 0.000219868, No Iterations 160
DICPCG:  Solving for p, Initial residual = 0.00450485, Final residual = 4.41215e-06, No Iterations 153
DICPCG:  Solving for p, Initial residual = 0.000263549, Final residual = 2.56966e-07, No Iterations 331
time step continuity errors : sum local = 9.60048e-11, global = -5.18203e-19, cumulative = 2.04458e-15
smoothSolver:  Solving for omega, Initial residual = 0.000174943, Final residual = 7.05e-09, No Iterations 18
bounding omega, min: -14.6317 max: 679.845 average: 4.52788
smoothSolver:  Solving for k, Initial residual = 0.0072728, Final residual = 9.34058e-09, No Iterations 24
bounding k, min: -0.0662093 max: 13.8856 average: 1.48606
ExecutionTime = 1367.03 s  ClockTime = 1367 s

Time = 64

smoothSolver:  Solving for Ux, Initial residual = 0.00084979, Final residual = 7.05427e-09, No Iterations 21
smoothSolver:  Solving for Uy, Initial residual = 0.017907, Final residual = 9.57209e-09, No Iterations 26
smoothSolver:  Solving for Uz, Initial residual = 0.00897971, Final residual = 9.12872e-09, No Iterations 25
DICPCG:  Solving for p, Initial residual = 0.214981, Final residual = 0.000205627, No Iterations 156
DICPCG:  Solving for p, Initial residual = 0.00438802, Final residual = 4.37563e-06, No Iterations 328
DICPCG:  Solving for p, Initial residual = 0.000264874, Final residual = 2.64441e-07, No Iterations 127
time step continuity errors : sum local = 1.11267e-10, global = 4.7209e-17, cumulative = 2.09179e-15
smoothSolver:  Solving for omega, Initial residual = 0.000171694, Final residual = 6.97289e-09, No Iterations 18
bounding omega, min: -5.64267 max: 685.366 average: 4.53088
smoothSolver:  Solving for k, Initial residual = 0.00721409, Final residual = 9.35338e-09, No Iterations 24
bounding k, min: -0.246577 max: 13.5027 average: 1.4855
ExecutionTime = 1384.74 s  ClockTime = 1385 s

Time = 65

smoothSolver:  Solving for Ux, Initial residual = 0.00083555, Final residual = 6.8859e-09, No Iterations 21
smoothSolver:  Solving for Uy, Initial residual = 0.0181089, Final residual = 9.5546e-09, No Iterations 26
smoothSolver:  Solving for Uz, Initial residual = 0.00908868, Final residual = 9.16051e-09, No Iterations 25
DICPCG:  Solving for p, Initial residual = 0.209281, Final residual = 0.000206812, No Iterations 111
DICPCG:  Solving for p, Initial residual = 0.00433452, Final residual = 4.30561e-06, No Iterations 164
DICPCG:  Solving for p, Initial residual = 0.000257763, Final residual = 2.51784e-07, No Iterations 334
time step continuity errors : sum local = 8.97558e-11, global = 5.52005e-17, cumulative = 2.14699e-15
smoothSolver:  Solving for omega, Initial residual = 0.000168452, Final residual = 6.89987e-09, No Iterations 18
bounding omega, min: -21.5497 max: 689.969 average: 4.53462
smoothSolver:  Solving for k, Initial residual = 0.0071533, Final residual = 9.36075e-09, No Iterations 24
bounding k, min: -0.0183489 max: 13.1992 average: 1.48497
ExecutionTime = 1402.38 s  ClockTime = 1403 s

Time = 66

smoothSolver:  Solving for Ux, Initial residual = 0.000822007, Final residual = 6.71927e-09, No Iterations 21
smoothSolver:  Solving for Uy, Initial residual = 0.0183468, Final residual = 9.5599e-09, No Iterations 26
smoothSolver:  Solving for Uz, Initial residual = 0.00918576, Final residual = 9.17616e-09, No Iterations 25
DICPCG:  Solving for p, Initial residual = 0.203577, Final residual = 0.000198395, No Iterations 162
DICPCG:  Solving for p, Initial residual = 0.00424613, Final residual = 3.90197e-06, No Iterations 328
DICPCG:  Solving for p, Initial residual = 0.00025688, Final residual = 2.48944e-07, No Iterations 115
time step continuity errors : sum local = 1.05589e-10, global = 1.11515e-17, cumulative = 2.15814e-15
smoothSolver:  Solving for omega, Initial residual = 0.000165248, Final residual = 6.82656e-09, No Iterations 18
bounding omega, min: -11.4377 max: 694.654 average: 4.53869
smoothSolver:  Solving for k, Initial residual = 0.00709287, Final residual = 9.35883e-09, No Iterations 24
bounding k, min: -0.145656 max: 12.868 average: 1.48448
ExecutionTime = 1419.94 s  ClockTime = 1420 s

Time = 67

smoothSolver:  Solving for Ux, Initial residual = 0.000809202, Final residual = 6.54968e-09, No Iterations 21
smoothSolver:  Solving for Uy, Initial residual = 0.0186397, Final residual = 9.60417e-09, No Iterations 26
smoothSolver:  Solving for Uz, Initial residual = 0.00927441, Final residual = 9.18688e-09, No Iterations 25
DICPCG:  Solving for p, Initial residual = 0.19778, Final residual = 0.000194565, No Iterations 163
DICPCG:  Solving for p, Initial residual = 0.00412648, Final residual = 3.84071e-06, No Iterations 327
DICPCG:  Solving for p, Initial residual = 0.000254423, Final residual = 2.48294e-07, No Iterations 125
time step continuity errors : sum local = 1.0833e-10, global = 1.94513e-17, cumulative = 2.17759e-15
smoothSolver:  Solving for omega, Initial residual = 0.000162245, Final residual = 6.75536e-09, No Iterations 18
bounding omega, min: -12.3449 max: 698.883 average: 4.54347
smoothSolver:  Solving for k, Initial residual = 0.00703003, Final residual = 9.3519e-09, No Iterations 24
bounding k, min: -0.00618496 max: 12.5381 average: 1.48402
ExecutionTime = 1437.77 s  ClockTime = 1438 s

Time = 68

smoothSolver:  Solving for Ux, Initial residual = 0.000795939, Final residual = 6.36969e-09, No Iterations 21
smoothSolver:  Solving for Uy, Initial residual = 0.0189812, Final residual = 9.68774e-09, No Iterations 26
smoothSolver:  Solving for Uz, Initial residual = 0.00935664, Final residual = 9.1996e-09, No Iterations 25
DICPCG:  Solving for p, Initial residual = 0.192777, Final residual = 0.00018681, No Iterations 163
DICPCG:  Solving for p, Initial residual = 0.00400805, Final residual = 4.00773e-06, No Iterations 108
DICPCG:  Solving for p, Initial residual = 0.000246052, Final residual = 2.28679e-07, No Iterations 333
time step continuity errors : sum local = 7.62112e-11, global = 8.27873e-17, cumulative = 2.26038e-15
smoothSolver:  Solving for omega, Initial residual = 0.000159349, Final residual = 6.68293e-09, No Iterations 18
bounding omega, min: -11.1485 max: 703.091 average: 4.54825
smoothSolver:  Solving for k, Initial residual = 0.00696655, Final residual = 9.34426e-09, No Iterations 24
bounding k, min: -0.121544 max: 12.2445 average: 1.48359
ExecutionTime = 1455.35 s  ClockTime = 1456 s

Time = 69

smoothSolver:  Solving for Ux, Initial residual = 0.000781648, Final residual = 6.17782e-09, No Iterations 21
smoothSolver:  Solving for Uy, Initial residual = 0.019344, Final residual = 9.7982e-09, No Iterations 26
smoothSolver:  Solving for Uz, Initial residual = 0.00942887, Final residual = 9.21682e-09, No Iterations 25
DICPCG:  Solving for p, Initial residual = 0.187915, Final residual = 0.000179096, No Iterations 161
DICPCG:  Solving for p, Initial residual = 0.00392334, Final residual = 3.88124e-06, No Iterations 152
DICPCG:  Solving for p, Initial residual = 0.000244344, Final residual = 2.29761e-07, No Iterations 335
time step continuity errors : sum local = 7.49194e-11, global = 8.76838e-17, cumulative = 2.34807e-15
smoothSolver:  Solving for omega, Initial residual = 0.000156531, Final residual = 6.61143e-09, No Iterations 18
bounding omega, min: -14.8529 max: 707.62 average: 4.55377
smoothSolver:  Solving for k, Initial residual = 0.00690099, Final residual = 9.33355e-09, No Iterations 24
bounding k, min: -0.0665937 max: 11.9649 average: 1.4832
ExecutionTime = 1473.9 s  ClockTime = 1474 s

Time = 70

smoothSolver:  Solving for Ux, Initial residual = 0.000766432, Final residual = 5.97642e-09, No Iterations 21
smoothSolver:  Solving for Uy, Initial residual = 0.01928, Final residual = 9.71414e-09, No Iterations 26
smoothSolver:  Solving for Uz, Initial residual = 0.00949051, Final residual = 9.24161e-09, No Iterations 25
DICPCG:  Solving for p, Initial residual = 0.182955, Final residual = 0.000177432, No Iterations 129
DICPCG:  Solving for p, Initial residual = 0.00388001, Final residual = 3.85541e-06, No Iterations 164
DICPCG:  Solving for p, Initial residual = 0.000241902, Final residual = 2.3174e-07, No Iterations 336
time step continuity errors : sum local = 7.39419e-11, global = 2.60811e-17, cumulative = 2.37415e-15
[...]
DICPCG:  Solving for p, Initial residual = 4.73578e-05, Final residual = 9.91365e-08, No Iterations 103
time step continuity errors : sum local = 2.59455e-11, global = 2.85076e-18, cumulative = 5.24206e-14
smoothSolver:  Solving for omega, Initial residual = 3.4401e-06, Final residual = 5.56374e-09, No Iterations 10
bounding omega, min: -17.3329 max: 835.508 average: 4.61432
smoothSolver:  Solving for k, Initial residual = 4.82991e-05, Final residual = 8.98064e-09, No Iterations 14
bounding k, min: -0.0317222 max: 8.40438 average: 1.45281
ExecutionTime = 27189.2 s  ClockTime = 27194 s

Time = 1484

smoothSolver:  Solving for Ux, Initial residual = 4.20192e-06, Final residual = 7.12482e-09, No Iterations 11
smoothSolver:  Solving for Uy, Initial residual = 7.20584e-05, Final residual = 7.49536e-09, No Iterations 16
smoothSolver:  Solving for Uz, Initial residual = 5.38216e-05, Final residual = 9.66985e-09, No Iterations 15
DICPCG:  Solving for p, Initial residual = 0.00814476, Final residual = 8.04043e-07, No Iterations 230
DICPCG:  Solving for p, Initial residual = 0.00048413, Final residual = 9.94315e-08, No Iterations 172
DICPCG:  Solving for p, Initial residual = 4.71248e-05, Final residual = 9.93161e-08, No Iterations 107
time step continuity errors : sum local = 2.5522e-11, global = 1.85553e-17, cumulative = 5.24391e-14
smoothSolver:  Solving for omega, Initial residual = 3.47251e-06, Final residual = 5.55899e-09, No Iterations 10
bounding omega, min: -23.9632 max: 835.809 average: 4.61473
smoothSolver:  Solving for k, Initial residual = 4.85757e-05, Final residual = 9.00782e-09, No Iterations 14
bounding k, min: -0.190308 max: 8.40114 average: 1.45288
ExecutionTime = 27203.9 s  ClockTime = 27209 s

Time = 1485

smoothSolver:  Solving for Ux, Initial residual = 4.21704e-06, Final residual = 7.15541e-09, No Iterations 11
smoothSolver:  Solving for Uy, Initial residual = 7.21264e-05, Final residual = 7.46359e-09, No Iterations 16
smoothSolver:  Solving for Uz, Initial residual = 5.38068e-05, Final residual = 9.59398e-09, No Iterations 15
DICPCG:  Solving for p, Initial residual = 0.00834497, Final residual = 8.24078e-07, No Iterations 229
DICPCG:  Solving for p, Initial residual = 0.000494551, Final residual = 9.78362e-08, No Iterations 161
DICPCG:  Solving for p, Initial residual = 4.64019e-05, Final residual = 9.5946e-08, No Iterations 79
time step continuity errors : sum local = 2.37501e-11, global = 4.78351e-17, cumulative = 5.2487e-14
smoothSolver:  Solving for omega, Initial residual = 3.49116e-06, Final residual = 5.56202e-09, No Iterations 10
bounding omega, min: -3.41066 max: 836.015 average: 4.6159
smoothSolver:  Solving for k, Initial residual = 4.88897e-05, Final residual = 9.04802e-09, No Iterations 14
bounding k, min: -0.0618401 max: 8.39787 average: 1.45295
ExecutionTime = 27217.7 s  ClockTime = 27223 s

Time = 1486

smoothSolver:  Solving for Ux, Initial residual = 4.23519e-06, Final residual = 7.1899e-09, No Iterations 11
smoothSolver:  Solving for Uy, Initial residual = 7.22229e-05, Final residual = 7.4348e-09, No Iterations 16
smoothSolver:  Solving for Uz, Initial residual = 5.38224e-05, Final residual = 9.52589e-09, No Iterations 15
DICPCG:  Solving for p, Initial residual = 0.00854446, Final residual = 8.34935e-07, No Iterations 229
DICPCG:  Solving for p, Initial residual = 0.000504965, Final residual = 9.74194e-08, No Iterations 177
DICPCG:  Solving for p, Initial residual = 4.82264e-05, Final residual = 9.91771e-08, No Iterations 82
time step continuity errors : sum local = 2.32773e-11, global = -5.16689e-18, cumulative = 5.24818e-14
smoothSolver:  Solving for omega, Initial residual = 3.44145e-06, Final residual = 9.99292e-09, No Iterations 9
bounding omega, min: -17.0829 max: 836.299 average: 4.61628
smoothSolver:  Solving for k, Initial residual = 4.92309e-05, Final residual = 9.10065e-09, No Iterations 14
bounding k, min: -0.189773 max: 8.3946 average: 1.45303
ExecutionTime = 27231.9 s  ClockTime = 27237 s

Time = 1487

smoothSolver:  Solving for Ux, Initial residual = 4.2557e-06, Final residual = 7.22738e-09, No Iterations 11
smoothSolver:  Solving for Uy, Initial residual = 7.23311e-05, Final residual = 7.4093e-09, No Iterations 16
smoothSolver:  Solving for Uz, Initial residual = 5.38613e-05, Final residual = 9.467e-09, No Iterations 15
DICPCG:  Solving for p, Initial residual = 0.0087438, Final residual = 8.72078e-07, No Iterations 228
DICPCG:  Solving for p, Initial residual = 0.00051256, Final residual = 9.83039e-08, No Iterations 178
DICPCG:  Solving for p, Initial residual = 4.61468e-05, Final residual = 9.82353e-08, No Iterations 76
time step continuity errors : sum local = 2.09779e-11, global = 9.07603e-19, cumulative = 5.24827e-14
smoothSolver:  Solving for omega, Initial residual = 3.51028e-06, Final residual = 5.56167e-09, No Iterations 10
bounding omega, min: -24.0287 max: 836.49 average: 4.61708
smoothSolver:  Solving for k, Initial residual = 4.95968e-05, Final residual = 9.16649e-09, No Iterations 14
bounding k, min: -0.0329314 max: 8.39132 average: 1.45312
ExecutionTime = 27246 s  ClockTime = 27251 s

Time = 1488

smoothSolver:  Solving for Ux, Initial residual = 4.27995e-06, Final residual = 7.26718e-09, No Iterations 11
smoothSolver:  Solving for Uy, Initial residual = 7.24629e-05, Final residual = 7.38502e-09, No Iterations 16
smoothSolver:  Solving for Uz, Initial residual = 5.39289e-05, Final residual = 9.41796e-09, No Iterations 15
DICPCG:  Solving for p, Initial residual = 0.00890834, Final residual = 8.6226e-07, No Iterations 229
DICPCG:  Solving for p, Initial residual = 0.00052278, Final residual = 9.92755e-08, No Iterations 159
DICPCG:  Solving for p, Initial residual = 4.61526e-05, Final residual = 9.77967e-08, No Iterations 79
time step continuity errors : sum local = 2.02487e-11, global = 4.7215e-17, cumulative = 5.25299e-14
smoothSolver:  Solving for omega, Initial residual = 3.61609e-06, Final residual = 5.57682e-09, No Iterations 10
bounding omega, min: -3.79167 max: 836.764 average: 4.61749
smoothSolver:  Solving for k, Initial residual = 5.00047e-05, Final residual = 9.24214e-09, No Iterations 14
bounding k, min: -0.189782 max: 8.38806 average: 1.45321
ExecutionTime = 27259.8 s  ClockTime = 27265 s

Time = 1489

smoothSolver:  Solving for Ux, Initial residual = 4.30835e-06, Final residual = 7.31098e-09, No Iterations 11
smoothSolver:  Solving for Uy, Initial residual = 7.26217e-05, Final residual = 7.3635e-09, No Iterations 16
smoothSolver:  Solving for Uz, Initial residual = 5.40194e-05, Final residual = 9.38257e-09, No Iterations 15
DICPCG:  Solving for p, Initial residual = 0.00909904, Final residual = 8.69776e-07, No Iterations 228
DICPCG:  Solving for p, Initial residual = 0.000531771, Final residual = 9.6025e-08, No Iterations 162
DICPCG:  Solving for p, Initial residual = 4.98639e-05, Final residual = 9.41384e-08, No Iterations 83
time step continuity errors : sum local = 2.13393e-11, global = 6.19031e-17, cumulative = 5.25918e-14
smoothSolver:  Solving for omega, Initial residual = 3.45396e-06, Final residual = 5.55415e-09, No Iterations 10
bounding omega, min: -17.3955 max: 836.945 average: 4.61844
smoothSolver:  Solving for k, Initial residual = 5.04331e-05, Final residual = 9.32931e-09, No Iterations 14
bounding k, min: -0.00538736 max: 8.38482 average: 1.45332
ExecutionTime = 27273.6 s  ClockTime = 27279 s

Time = 1490

smoothSolver:  Solving for Ux, Initial residual = 4.33941e-06, Final residual = 7.35806e-09, No Iterations 11
smoothSolver:  Solving for Uy, Initial residual = 7.28106e-05, Final residual = 7.34878e-09, No Iterations 16
smoothSolver:  Solving for Uz, Initial residual = 5.41444e-05, Final residual = 9.36114e-09, No Iterations 15
DICPCG:  Solving for p, Initial residual = 0.00927311, Final residual = 9.20472e-07, No Iterations 223
DICPCG:  Solving for p, Initial residual = 0.000537563, Final residual = 9.75762e-08, No Iterations 162
DICPCG:  Solving for p, Initial residual = 5.19016e-05, Final residual = 9.7116e-08, No Iterations 82
time step continuity errors : sum local = 2.21498e-11, global = 5.79795e-17, cumulative = 5.26498e-14
smoothSolver:  Solving for omega, Initial residual = 3.38187e-06, Final residual = 9.98632e-09, No Iterations 9
bounding omega, min: -24.089 max: 837.207 average: 4.61883
smoothSolver:  Solving for k, Initial residual = 5.08818e-05, Final residual = 9.42474e-09, No Iterations 14
bounding k, min: -0.190098 max: 8.38162 average: 1.45343
ExecutionTime = 27287.4 s  ClockTime = 27292 s

Time = 1491

smoothSolver:  Solving for Ux, Initial residual = 4.37434e-06, Final residual = 7.40948e-09, No Iterations 11
smoothSolver:  Solving for Uy, Initial residual = 7.30803e-05, Final residual = 7.34689e-09, No Iterations 16
smoothSolver:  Solving for Uz, Initial residual = 5.43217e-05, Final residual = 9.36017e-09, No Iterations 15
DICPCG:  Solving for p, Initial residual = 0.00944898, Final residual = 8.98556e-07, No Iterations 179
DICPCG:  Solving for p, Initial residual = 0.000535768, Final residual = 9.90589e-08, No Iterations 163
DICPCG:  Solving for p, Initial residual = 4.85116e-05, Final residual = 9.9554e-08, No Iterations 78
time step continuity errors : sum local = 2.1636e-11, global = 6.21085e-17, cumulative = 5.27119e-14
smoothSolver:  Solving for omega, Initial residual = 3.52713e-06, Final residual = 5.57958e-09, No Iterations 10
bounding omega, min: -8.23836 max: 837.375 average: 4.61936
smoothSolver:  Solving for k, Initial residual = 5.13299e-05, Final residual = 9.52877e-09, No Iterations 14
bounding k, min: -0.0661485 max: 8.3785 average: 1.45354
ExecutionTime = 27300.1 s  ClockTime = 27305 s

Time = 1492

smoothSolver:  Solving for Ux, Initial residual = 4.41324e-06, Final residual = 7.46621e-09, No Iterations 11
smoothSolver:  Solving for Uy, Initial residual = 7.34268e-05, Final residual = 7.35352e-09, No Iterations 16
smoothSolver:  Solving for Uz, Initial residual = 5.4569e-05, Final residual = 9.38551e-09, No Iterations 15
DICPCG:  Solving for p, Initial residual = 0.00960523, Final residual = 9.5912e-07, No Iterations 178
DICPCG:  Solving for p, Initial residual = 0.000545809, Final residual = 9.74674e-08, No Iterations 165
DICPCG:  Solving for p, Initial residual = 4.74583e-05, Final residual = 9.80275e-08, No Iterations 86
time step continuity errors : sum local = 2.07674e-11, global = 3.87634e-17, cumulative = 5.27507e-14
smoothSolver:  Solving for omega, Initial residual = 3.57869e-06, Final residual = 5.58566e-09, No Iterations 10
bounding omega, min: -17.1317 max: 837.624 average: 4.61978
smoothSolver:  Solving for k, Initial residual = 5.17909e-05, Final residual = 9.64139e-09, No Iterations 14
bounding k, min: -0.190293 max: 8.37548 average: 1.45366
ExecutionTime = 27313 s  ClockTime = 27318 s

Time = 1493

smoothSolver:  Solving for Ux, Initial residual = 4.45624e-06, Final residual = 7.52949e-09, No Iterations 11
smoothSolver:  Solving for Uy, Initial residual = 7.38862e-05, Final residual = 7.3752e-09, No Iterations 16
smoothSolver:  Solving for Uz, Initial residual = 5.48978e-05, Final residual = 9.44347e-09, No Iterations 15
DICPCG:  Solving for p, Initial residual = 0.00982463, Final residual = 9.20367e-07, No Iterations 179
DICPCG:  Solving for p, Initial residual = 0.00056149, Final residual = 9.93208e-08, No Iterations 177
DICPCG:  Solving for p, Initial residual = 4.77312e-05, Final residual = 9.95932e-08, No Iterations 82
time step continuity errors : sum local = 2.10719e-11, global = 2.71142e-17, cumulative = 5.27778e-14
smoothSolver:  Solving for omega, Initial residual = 3.48748e-06, Final residual = 5.58765e-09, No Iterations 10
bounding omega, min: -24.1225 max: 837.78 average: 4.62063
smoothSolver:  Solving for k, Initial residual = 5.22617e-05, Final residual = 9.7623e-09, No Iterations 14
bounding k, min: -0.00518772 max: 8.37256 average: 1.45379
ExecutionTime = 27326.2 s  ClockTime = 27331 s

Time = 1494

smoothSolver:  Solving for Ux, Initial residual = 4.50378e-06, Final residual = 7.59928e-09, No Iterations 11
smoothSolver:  Solving for Uy, Initial residual = 7.44278e-05, Final residual = 7.41252e-09, No Iterations 16
smoothSolver:  Solving for Uz, Initial residual = 5.53222e-05, Final residual = 9.53351e-09, No Iterations 15
DICPCG:  Solving for p, Initial residual = 0.0100696, Final residual = 9.77417e-07, No Iterations 182
DICPCG:  Solving for p, Initial residual = 0.000579522, Final residual = 9.80206e-08, No Iterations 167
DICPCG:  Solving for p, Initial residual = 5.05809e-05, Final residual = 9.96385e-08, No Iterations 94
time step continuity errors : sum local = 2.04587e-11, global = 8.34086e-17, cumulative = 5.28612e-14
smoothSolver:  Solving for omega, Initial residual = 3.53169e-06, Final residual = 5.60357e-09, No Iterations 10
bounding omega, min: -5.16396 max: 838.019 average: 4.62084
smoothSolver:  Solving for k, Initial residual = 5.27817e-05, Final residual = 9.89243e-09, No Iterations 14
bounding k, min: -0.190213 max: 8.36973 average: 1.45393
ExecutionTime = 27339.4 s  ClockTime = 27344 s

Time = 1495

smoothSolver:  Solving for Ux, Initial residual = 4.55617e-06, Final residual = 7.67855e-09, No Iterations 11
smoothSolver:  Solving for Uy, Initial residual = 7.50045e-05, Final residual = 7.46091e-09, No Iterations 16
smoothSolver:  Solving for Uz, Initial residual = 5.58288e-05, Final residual = 9.65315e-09, No Iterations 15
DICPCG:  Solving for p, Initial residual = 0.0103189, Final residual = 1.02245e-06, No Iterations 225
DICPCG:  Solving for p, Initial residual = 0.000588471, Final residual = 9.6398e-08, No Iterations 179
DICPCG:  Solving for p, Initial residual = 4.7313e-05, Final residual = 9.84313e-08, No Iterations 129
time step continuity errors : sum local = 2.16346e-11, global = 4.85505e-17, cumulative = 5.29097e-14
smoothSolver:  Solving for omega, Initial residual = 3.47255e-06, Final residual = 5.60959e-09, No Iterations 10
bounding omega, min: -17.4329 max: 838.165 average: 4.62131
smoothSolver:  Solving for k, Initial residual = 5.32931e-05, Final residual = 5.57434e-09, No Iterations 15
bounding k, min: -0.0349663 max: 8.36699 average: 1.45407
ExecutionTime = 27354.7 s  ClockTime = 27360 s

Time = 1496

smoothSolver:  Solving for Ux, Initial residual = 4.61283e-06, Final residual = 7.76798e-09, No Iterations 11
smoothSolver:  Solving for Uy, Initial residual = 7.56481e-05, Final residual = 7.52358e-09, No Iterations 16
smoothSolver:  Solving for Uz, Initial residual = 5.64136e-05, Final residual = 9.80232e-09, No Iterations 15
DICPCG:  Solving for p, Initial residual = 0.0105832, Final residual = 9.98091e-07, No Iterations 225
DICPCG:  Solving for p, Initial residual = 0.00062075, Final residual = 9.47251e-08, No Iterations 325
DICPCG:  Solving for p, Initial residual = 5.49107e-05, Final residual = 9.76742e-08, No Iterations 104
time step continuity errors : sum local = 1.94534e-11, global = 1.72735e-17, cumulative = 5.2927e-14
smoothSolver:  Solving for omega, Initial residual = 3.44682e-06, Final residual = 5.61721e-09, No Iterations 10
bounding omega, min: -24.175 max: 838.396 average: 4.6215
smoothSolver:  Solving for k, Initial residual = 5.38341e-05, Final residual = 5.65393e-09, No Iterations 15
bounding k, min: -0.190387 max: 8.36433 average: 1.45422
ExecutionTime = 27372.5 s  ClockTime = 27378 s

Time = 1497

smoothSolver:  Solving for Ux, Initial residual = 4.67321e-06, Final residual = 7.86766e-09, No Iterations 11
smoothSolver:  Solving for Uy, Initial residual = 7.63825e-05, Final residual = 7.59954e-09, No Iterations 16
smoothSolver:  Solving for Uz, Initial residual = 5.70896e-05, Final residual = 9.98188e-09, No Iterations 15
DICPCG:  Solving for p, Initial residual = 0.0108231, Final residual = 1.07125e-06, No Iterations 225
DICPCG:  Solving for p, Initial residual = 0.000623696, Final residual = 9.46131e-08, No Iterations 324
DICPCG:  Solving for p, Initial residual = 5.64008e-05, Final residual = 9.75776e-08, No Iterations 117
time step continuity errors : sum local = 1.94489e-11, global = 1.68538e-17, cumulative = 5.29439e-14
smoothSolver:  Solving for omega, Initial residual = 3.74499e-06, Final residual = 5.68915e-09, No Iterations 10
bounding omega, min: -5.96499 max: 838.534 average: 4.62239
smoothSolver:  Solving for k, Initial residual = 5.4424e-05, Final residual = 5.73422e-09, No Iterations 15
bounding k, min: -0.0638399 max: 8.36341 average: 1.45438
ExecutionTime = 27390.7 s  ClockTime = 27396 s

Time = 1498

smoothSolver:  Solving for Ux, Initial residual = 4.73737e-06, Final residual = 7.97561e-09, No Iterations 11
smoothSolver:  Solving for Uy, Initial residual = 7.7191e-05, Final residual = 7.6893e-09, No Iterations 16
smoothSolver:  Solving for Uz, Initial residual = 5.78559e-05, Final residual = 5.8108e-09, No Iterations 16
DICPCG:  Solving for p, Initial residual = 0.0109786, Final residual = 1.06911e-06, No Iterations 226
DICPCG:  Solving for p, Initial residual = 0.000627701, Final residual = 9.55558e-08, No Iterations 336
DICPCG:  Solving for p, Initial residual = 5.93058e-05, Final residual = 9.85359e-08, No Iterations 131
time step continuity errors : sum local = 1.96527e-11, global = 3.33667e-17, cumulative = 5.29772e-14
smoothSolver:  Solving for omega, Initial residual = 3.56186e-06, Final residual = 5.64593e-09, No Iterations 10
bounding omega, min: -17.147 max: 838.752 average: 4.62255
smoothSolver:  Solving for k, Initial residual = 5.49916e-05, Final residual = 5.8155e-09, No Iterations 15
bounding k, min: -0.19072 max: 8.3669 average: 1.45455
ExecutionTime = 27409.4 s  ClockTime = 27414 s

Time = 1499

smoothSolver:  Solving for Ux, Initial residual = 4.80559e-06, Final residual = 8.09078e-09, No Iterations 11
smoothSolver:  Solving for Uy, Initial residual = 7.80614e-05, Final residual = 7.78663e-09, No Iterations 16
smoothSolver:  Solving for Uz, Initial residual = 5.87397e-05, Final residual = 5.95358e-09, No Iterations 16
DICPCG:  Solving for p, Initial residual = 0.0111017, Final residual = 1.10038e-06, No Iterations 226
DICPCG:  Solving for p, Initial residual = 0.000630061, Final residual = 9.47811e-08, No Iterations 336
DICPCG:  Solving for p, Initial residual = 5.75707e-05, Final residual = 9.98358e-08, No Iterations 140
time step continuity errors : sum local = 1.99247e-11, global = 1.27295e-17, cumulative = 5.299e-14
smoothSolver:  Solving for omega, Initial residual = 3.50152e-06, Final residual = 5.66644e-09, No Iterations 10
bounding omega, min: -24.2124 max: 838.877 average: 4.62314
smoothSolver:  Solving for k, Initial residual = 5.55773e-05, Final residual = 5.89876e-09, No Iterations 15
bounding k, min: -0.0354809 max: 8.37033 average: 1.45472
ExecutionTime = 27429.7 s  ClockTime = 27435 s

Time = 1500

smoothSolver:  Solving for Ux, Initial residual = 4.87929e-06, Final residual = 8.2132e-09, No Iterations 11
smoothSolver:  Solving for Uy, Initial residual = 7.89695e-05, Final residual = 7.89089e-09, No Iterations 16
smoothSolver:  Solving for Uz, Initial residual = 5.97229e-05, Final residual = 6.11228e-09, No Iterations 16
DICPCG:  Solving for p, Initial residual = 0.0112625, Final residual = 1.10377e-06, No Iterations 226
DICPCG:  Solving for p, Initial residual = 0.000652606, Final residual = 9.4521e-08, No Iterations 338
DICPCG:  Solving for p, Initial residual = 6.03774e-05, Final residual = 9.81186e-08, No Iterations 141
time step continuity errors : sum local = 1.9674e-11, global = 5.26935e-17, cumulative = 5.30427e-14
smoothSolver:  Solving for omega, Initial residual = 3.53311e-06, Final residual = 5.67298e-09, No Iterations 10
bounding omega, min: -4.98793 max: 839.085 average: 4.62341
smoothSolver:  Solving for k, Initial residual = 5.6241e-05, Final residual = 5.98534e-09, No Iterations 15
bounding k, min: -0.191346 max: 8.37364 average: 1.4549
ExecutionTime = 27451.7 s  ClockTime = 27457 s

End

Finalising parallel run
